
OS:Version,
  {3509bb3a-c6ec-4826-9750-ed966752d6f6}, !- Handle
  2.6.0;                                  !- Version Identifier

OS:Site,
  {0b0a129d-4f08-4f52-9b0e-4f75ff66d202}, !- Handle
  Chicago Ohare Intl Ap,                  !- Name
  41.98,                                  !- Latitude {deg}
  -87.92,                                 !- Longitude {deg}
  -6,                                     !- Time Zone {hr}
  201,                                    !- Elevation {m}
  ;                                       !- Terrain

OS:YearDescription,
  {650f7055-6b9d-43eb-a916-59087af34ca6}, !- Handle
  ,                                       !- Calendar Year
  Sunday;                                 !- Day of Week for Start Day

OS:ClimateZones,
  {26a9b3b9-ea35-43c3-85a2-251e473e4ff4}, !- Handle
  ,                                       !- Active Institution
  ,                                       !- Active Year
  ,                                       !- Climate Zone Institution Name 1
  ,                                       !- Climate Zone Document Name 1
  ,                                       !- Climate Zone Document Year 1
  ,                                       !- Climate Zone Value 1
  CEC,                                    !- Climate Zone Institution Name 2
  California Climate Zone Descriptions,   !- Climate Zone Document Name 2
  1995,                                   !- Climate Zone Document Year 2
  ;                                       !- Climate Zone Value 2

OS:Building,
  {e7b32c4b-24f0-45da-9e92-e487772e5564}, !- Handle
  Building 1,                             !- Name
  ,                                       !- Building Sector Type
  ,                                       !- North Axis {deg}
  ,                                       !- Nominal Floor to Floor Height {m}
  ,                                       !- Space Type Name
  {712b3e32-0aa3-474a-93f4-2176bc93a468}, !- Default Construction Set Name
  ;                                       !- Default Schedule Set Name

OS:Facility,
  {b87686de-b219-42d1-9ff6-a1014dee2ac1}; !- Handle

OS:SimulationControl,
  {e5049fd0-d32d-4a2a-a66a-fa2e418c74fd}; !- Handle

OS:Sizing:Parameters,
  {aa0681c9-6aa2-48d2-b234-e59c2a068ae5}, !- Handle
  1.25,                                   !- Heating Sizing Factor
  1.15;                                   !- Cooling Sizing Factor

OS:Timestep,
  {147a7078-4121-481e-a5b4-cfc26d246d25}, !- Handle
  6;                                      !- Number of Timesteps per Hour

OS:ShadowCalculation,
  {8bfd90b1-a80d-42b7-b032-492f41a1ec99}, !- Handle
  20,                                     !- Calculation Frequency
  15000;                                  !- Maximum Figures in Shadow Overlap Calculations

OS:HeatBalanceAlgorithm,
  {56c2190d-e281-4632-8b67-b827556dc538}, !- Handle
  ConductionTransferFunction,             !- Algorithm
  200;                                    !- Surface Temperature Upper Limit {C}

OS:RunPeriod,
  {3874de0a-8393-4ca7-9fb8-dc53e5010469}, !- Handle
  Run Period 1,                           !- Name
  1,                                      !- Begin Month
  1,                                      !- Begin Day of Month
  12,                                     !- End Month
  31,                                     !- End Day of Month
  ,                                       !- Use Weather File Holidays and Special Days
  ,                                       !- Use Weather File Daylight Saving Period
  ,                                       !- Apply Weekend Holiday Rule
  ,                                       !- Use Weather File Rain Indicators
  ,                                       !- Use Weather File Snow Indicators
  ;                                       !- Number of Times Runperiod to be Repeated

OS:LifeCycleCost:Parameters,
  {6e39ed63-a2e9-4e9c-8c9b-77ad08542fea}, !- Handle
  ,                                       !- Analysis Type
  ,                                       !- Discounting Convention
  ,                                       !- Inflation Approach
  ,                                       !- Real Discount Rate
  ,                                       !- Nominal Discount Rate
  ,                                       !- Inflation
  ,                                       !- Base Date Month
  ,                                       !- Base Date Year
  ,                                       !- Service Date Month
  ,                                       !- Service Date Year
  ;                                       !- Length of Study Period in Years

OS:Space,
  {9f412bc8-6bcd-4681-9071-103a331d31f1}, !- Handle
  汉字,                                 !- Name
  ,                                       !- Space Type Name
  ,                                       !- Default Construction Set Name
  ,                                       !- Default Schedule Set Name
  ,                                       !- Direction of Relative North {deg}
  ,                                       !- X Origin {m}
  ,                                       !- Y Origin {m}
  ,                                       !- Z Origin {m}
  {6e0d121d-6fda-4f3d-98de-4f9f00619678}, !- Building Story Name
  {95d38276-e2ea-49fd-9edc-22d931de6c86}, !- Thermal Zone Name
  ,                                       !- Part of Total Floor Area
  ,                                       !- Design Specification Outdoor Air Object Name
  ;                                       !- Building Unit Name

OS:Surface,
  {d6ca4434-1393-45c9-93b5-a2bc78a2b96b}, !- Handle
  Face 8,                                 !- Name
  Wall,                                   !- Surface Type
  ,                                       !- Construction Name
  {9f412bc8-6bcd-4681-9071-103a331d31f1}, !- Space Name
  Outdoors,                               !- Outside Boundary Condition
  ,                                       !- Outside Boundary Condition Object
  SunExposed,                             !- Sun Exposure
  WindExposed,                            !- Wind Exposure
  ,                                       !- View Factor to Ground
  ,                                       !- Number of Vertices
  50, 45, 2.4384,                         !- X,Y,Z Vertex 1 {m}
  50, -50, 2.4384,                        !- X,Y,Z Vertex 2 {m}
  50, -50, 0,                             !- X,Y,Z Vertex 3 {m}
  50, 45, 0;                              !- X,Y,Z Vertex 4 {m}

OS:Surface,
  {6fdcac3a-ad3e-40e1-86e8-04b22ee53e0a}, !- Handle
  Face 10,                                !- Name
  Wall,                                   !- Surface Type
  ,                                       !- Construction Name
  {9f412bc8-6bcd-4681-9071-103a331d31f1}, !- Space Name
  Outdoors,                               !- Outside Boundary Condition
  ,                                       !- Outside Boundary Condition Object
  SunExposed,                             !- Sun Exposure
  WindExposed,                            !- Wind Exposure
  ,                                       !- View Factor to Ground
  ,                                       !- Number of Vertices
  -45, -50, 2.4384,                       !- X,Y,Z Vertex 1 {m}
  -50, -50, 2.4384,                       !- X,Y,Z Vertex 2 {m}
  -50, -50, 0,                            !- X,Y,Z Vertex 3 {m}
  -45, -50, 0;                            !- X,Y,Z Vertex 4 {m}

OS:Surface,
  {09e83fc6-9927-48b3-921f-465b78ef78bd}, !- Handle
  Face 6,                                 !- Name
  Floor,                                  !- Surface Type
  ,                                       !- Construction Name
  {9f412bc8-6bcd-4681-9071-103a331d31f1}, !- Space Name
  Ground,                                 !- Outside Boundary Condition
  ,                                       !- Outside Boundary Condition Object
  NoSun,                                  !- Sun Exposure
  NoWind,                                 !- Wind Exposure
  ,                                       !- View Factor to Ground
  ,                                       !- Number of Vertices
  50, 45, 0,                              !- X,Y,Z Vertex 1 {m}
  50, -50, 0,                             !- X,Y,Z Vertex 2 {m}
  -45, -50, 0,                            !- X,Y,Z Vertex 3 {m}
  -50, -50, 0,                            !- X,Y,Z Vertex 4 {m}
  -50, 45, 0,                             !- X,Y,Z Vertex 5 {m}
  -45, 45, 0;                             !- X,Y,Z Vertex 6 {m}

OS:Surface,
  {281ac266-e371-4a4d-b9dd-334f7b4f6d26}, !- Handle
  Face 11,                                !- Name
  Wall,                                   !- Surface Type
  ,                                       !- Construction Name
  {9f412bc8-6bcd-4681-9071-103a331d31f1}, !- Space Name
  Surface,                                !- Outside Boundary Condition
  {611caf14-c483-4e87-a194-c1e392bfbdd1}, !- Outside Boundary Condition Object
  NoSun,                                  !- Sun Exposure
  NoWind,                                 !- Wind Exposure
  ,                                       !- View Factor to Ground
  ,                                       !- Number of Vertices
  -50, -50, 2.4384,                       !- X,Y,Z Vertex 1 {m}
  -50, 45, 2.4384,                        !- X,Y,Z Vertex 2 {m}
  -50, 45, 0,                             !- X,Y,Z Vertex 3 {m}
  -50, -50, 0;                            !- X,Y,Z Vertex 4 {m}

OS:Surface,
  {38c1fd1e-2510-42e2-863a-e1c6b3380985}, !- Handle
  Face 12,                                !- Name
  Wall,                                   !- Surface Type
  ,                                       !- Construction Name
  {9f412bc8-6bcd-4681-9071-103a331d31f1}, !- Space Name
  Outdoors,                               !- Outside Boundary Condition
  ,                                       !- Outside Boundary Condition Object
  SunExposed,                             !- Sun Exposure
  WindExposed,                            !- Wind Exposure
  ,                                       !- View Factor to Ground
  ,                                       !- Number of Vertices
  -50, 45, 2.4384,                        !- X,Y,Z Vertex 1 {m}
  -45, 45, 2.4384,                        !- X,Y,Z Vertex 2 {m}
  -45, 45, 0,                             !- X,Y,Z Vertex 3 {m}
  -50, 45, 0;                             !- X,Y,Z Vertex 4 {m}

OS:Surface,
  {9b8b3acc-1f43-4877-bb76-11844cb57adb}, !- Handle
  Face 13,                                !- Name
  Wall,                                   !- Surface Type
  ,                                       !- Construction Name
  {9f412bc8-6bcd-4681-9071-103a331d31f1}, !- Space Name
  Outdoors,                               !- Outside Boundary Condition
  ,                                       !- Outside Boundary Condition Object
  SunExposed,                             !- Sun Exposure
  WindExposed,                            !- Wind Exposure
  ,                                       !- View Factor to Ground
  ,                                       !- Number of Vertices
  -45, 45, 2.4384,                        !- X,Y,Z Vertex 1 {m}
  50, 45, 2.4384,                         !- X,Y,Z Vertex 2 {m}
  50, 45, 0,                              !- X,Y,Z Vertex 3 {m}
  -45, 45, 0;                             !- X,Y,Z Vertex 4 {m}

OS:Surface,
  {7cc8af12-b844-49ef-8c02-1035f25e1510}, !- Handle
  Face 9,                                 !- Name
  Wall,                                   !- Surface Type
  ,                                       !- Construction Name
  {9f412bc8-6bcd-4681-9071-103a331d31f1}, !- Space Name
  Outdoors,                               !- Outside Boundary Condition
  ,                                       !- Outside Boundary Condition Object
  SunExposed,                             !- Sun Exposure
  WindExposed,                            !- Wind Exposure
  ,                                       !- View Factor to Ground
  ,                                       !- Number of Vertices
  50, -50, 2.4384,                        !- X,Y,Z Vertex 1 {m}
  -45, -50, 2.4384,                       !- X,Y,Z Vertex 2 {m}
  -45, -50, 0,                            !- X,Y,Z Vertex 3 {m}
  50, -50, 0;                             !- X,Y,Z Vertex 4 {m}

OS:Surface,
  {e6f227a4-fad8-44e6-af40-c986d314546c}, !- Handle
  Face 7,                                 !- Name
  RoofCeiling,                            !- Surface Type
  ,                                       !- Construction Name
  {9f412bc8-6bcd-4681-9071-103a331d31f1}, !- Space Name
  Outdoors,                               !- Outside Boundary Condition
  ,                                       !- Outside Boundary Condition Object
  SunExposed,                             !- Sun Exposure
  WindExposed,                            !- Wind Exposure
  ,                                       !- View Factor to Ground
  ,                                       !- Number of Vertices
  -45, 45, 2.4384,                        !- X,Y,Z Vertex 1 {m}
  -50, 45, 2.4384,                        !- X,Y,Z Vertex 2 {m}
  -50, -50, 2.4384,                       !- X,Y,Z Vertex 3 {m}
  -45, -50, 2.4384,                       !- X,Y,Z Vertex 4 {m}
  50, -50, 2.4384,                        !- X,Y,Z Vertex 5 {m}
  50, 45, 2.4384;                         !- X,Y,Z Vertex 6 {m}

OS:ThermalZone,
  {95d38276-e2ea-49fd-9edc-22d931de6c86}, !- Handle
  한자,                                 !- Name
  1,                                      !- Multiplier
  ,                                       !- Ceiling Height {m}
  ,                                       !- Volume {m3}
  ,                                       !- Floor Area {m2}
  ,                                       !- Zone Inside Convection Algorithm
  ,                                       !- Zone Outside Convection Algorithm
  ,                                       !- Zone Conditioning Equipment List Name
  {d84b87be-e21b-46db-aab1-9a2f821d285d}, !- Zone Air Inlet Port List
  {9d137e7d-5cf1-4235-b8b7-c1b21e664002}, !- Zone Air Exhaust Port List
  {675c5307-19e9-4143-ae9b-723d69bb0606}, !- Zone Air Node Name
  ,                                       !- Zone Return Air Node Name
  ,                                       !- Primary Daylighting Control Name
  ,                                       !- Fraction of Zone Controlled by Primary Daylighting Control
  ,                                       !- Secondary Daylighting Control Name
  ,                                       !- Fraction of Zone Controlled by Secondary Daylighting Control
  ,                                       !- Illuminance Map Name
  {b0efcb21-b394-4b58-8b5d-a71b457d6b09}, !- Group Rendering Name
  ,                                       !- Thermostat Name
  No;                                     !- Use Ideal Air Loads

OS:Node,
  {265c16f2-3245-4a91-932b-785e67079e7c}, !- Handle
  Node 1,                                 !- Name
  {675c5307-19e9-4143-ae9b-723d69bb0606}, !- Inlet Port
  ;                                       !- Outlet Port

OS:Connection,
  {675c5307-19e9-4143-ae9b-723d69bb0606}, !- Handle
  {7a0cf716-6754-4ade-b5ea-625c25abc49b}, !- Name
  {95d38276-e2ea-49fd-9edc-22d931de6c86}, !- Source Object
  11,                                     !- Outlet Port
  {265c16f2-3245-4a91-932b-785e67079e7c}, !- Target Object
  2;                                      !- Inlet Port

OS:PortList,
  {d84b87be-e21b-46db-aab1-9a2f821d285d}, !- Handle
  {4f5f8fc6-807d-4167-ae8e-861ffd7c6e0d}, !- Name
  {95d38276-e2ea-49fd-9edc-22d931de6c86}; !- HVAC Component

OS:PortList,
  {9d137e7d-5cf1-4235-b8b7-c1b21e664002}, !- Handle
  {f4f16aa2-1512-445c-8446-024ccd8cfe3e}, !- Name
  {95d38276-e2ea-49fd-9edc-22d931de6c86}; !- HVAC Component

OS:Sizing:Zone,
  {2c94dc84-120d-41d3-95f5-5c245f0be784}, !- Handle
  {95d38276-e2ea-49fd-9edc-22d931de6c86}, !- Zone or ZoneList Name
  SupplyAirTemperature,                   !- Zone Cooling Design Supply Air Temperature Input Method
  14,                                     !- Zone Cooling Design Supply Air Temperature {C}
  11.11,                                  !- Zone Cooling Design Supply Air Temperature Difference {deltaC}
  SupplyAirTemperature,                   !- Zone Heating Design Supply Air Temperature Input Method
  40,                                     !- Zone Heating Design Supply Air Temperature {C}
  11.11,                                  !- Zone Heating Design Supply Air Temperature Difference {deltaC}
  0.0085,                                 !- Zone Cooling Design Supply Air Humidity Ratio {kg-H2O/kg-air}
  0.008,                                  !- Zone Heating Design Supply Air Humidity Ratio {kg-H2O/kg-air}
  ,                                       !- Zone Heating Sizing Factor
  ,                                       !- Zone Cooling Sizing Factor
  DesignDay,                              !- Cooling Design Air Flow Method
  ,                                       !- Cooling Design Air Flow Rate {m3/s}
  ,                                       !- Cooling Minimum Air Flow per Zone Floor Area {m3/s-m2}
  ,                                       !- Cooling Minimum Air Flow {m3/s}
  ,                                       !- Cooling Minimum Air Flow Fraction
  DesignDay,                              !- Heating Design Air Flow Method
  ,                                       !- Heating Design Air Flow Rate {m3/s}
  ,                                       !- Heating Maximum Air Flow per Zone Floor Area {m3/s-m2}
  ,                                       !- Heating Maximum Air Flow {m3/s}
  ,                                       !- Heating Maximum Air Flow Fraction
  ,                                       !- Design Zone Air Distribution Effectiveness in Cooling Mode
  ,                                       !- Design Zone Air Distribution Effectiveness in Heating Mode
  No,                                     !- Account for Dedicated Outdoor Air System
  NeutralSupplyAir,                       !- Dedicated Outdoor Air System Control Strategy
  autosize,                               !- Dedicated Outdoor Air Low Setpoint Temperature for Design {C}
  autosize;                               !- Dedicated Outdoor Air High Setpoint Temperature for Design {C}

OS:ZoneHVAC:EquipmentList,
  {968d853e-887c-4052-98b9-ce489ac86a06}, !- Handle
  Zone HVAC Equipment List 1,             !- Name
  {95d38276-e2ea-49fd-9edc-22d931de6c86}; !- Thermal Zone

OS:Rendering:Color,
  {b0efcb21-b394-4b58-8b5d-a71b457d6b09}, !- Handle
  Rendering Color 1,                      !- Name
  136,                                    !- Rendering Red Value
  204,                                    !- Rendering Green Value
  238;                                    !- Rendering Blue Value

OS:BuildingStory,
  {6e0d121d-6fda-4f3d-98de-4f9f00619678}, !- Handle
  Story 1,                                !- Name
  0,                                      !- Nominal Z Coordinate {m}
  2.4384,                                 !- Nominal Floor to Floor Height {m}
  ,                                       !- Default Construction Set Name
  ,                                       !- Default Schedule Set Name
  {395dcc21-0bc9-4d26-b43b-9a658796d0e2}, !- Group Rendering Name
  2.4384;                                 !- Nominal Floor to Ceiling Height {m}

OS:Rendering:Color,
  {395dcc21-0bc9-4d26-b43b-9a658796d0e2}, !- Handle
  Rendering Color 2,                      !- Name
  51,                                     !- Rendering Red Value
  34,                                     !- Rendering Green Value
  136;                                    !- Rendering Blue Value

OS:Space,
  {cc29e4d6-16dd-4e85-8fe1-88656459607d}, !- Handle
  漢字,                                 !- Name
  ,                                       !- Space Type Name
  ,                                       !- Default Construction Set Name
  ,                                       !- Default Schedule Set Name
  ,                                       !- Direction of Relative North {deg}
  ,                                       !- X Origin {m}
  ,                                       !- Y Origin {m}
  ,                                       !- Z Origin {m}
  {6e0d121d-6fda-4f3d-98de-4f9f00619678}, !- Building Story Name
  {95d38276-e2ea-49fd-9edc-22d931de6c86}, !- Thermal Zone Name
  ,                                       !- Part of Total Floor Area
  ,                                       !- Design Specification Outdoor Air Object Name
  ;                                       !- Building Unit Name

OS:Surface,
  {0960acf0-6b22-4c95-a3a2-c4a6962cb8a2}, !- Handle
  Face 0,                                 !- Name
  Floor,                                  !- Surface Type
  ,                                       !- Construction Name
  {cc29e4d6-16dd-4e85-8fe1-88656459607d}, !- Space Name
  Ground,                                 !- Outside Boundary Condition
  ,                                       !- Outside Boundary Condition Object
  NoSun,                                  !- Sun Exposure
  NoWind,                                 !- Wind Exposure
  ,                                       !- View Factor to Ground
  ,                                       !- Number of Vertices
  -180, -50, 0,                           !- X,Y,Z Vertex 1 {m}
  -180, 45, 0,                            !- X,Y,Z Vertex 2 {m}
  -50, 45, 0,                             !- X,Y,Z Vertex 3 {m}
  -50, -50, 0;                            !- X,Y,Z Vertex 4 {m}

OS:Surface,
  {deccf3e1-11ea-45c1-b6d6-3ce55d7f9590}, !- Handle
  Face 1,                                 !- Name
  RoofCeiling,                            !- Surface Type
  ,                                       !- Construction Name
  {cc29e4d6-16dd-4e85-8fe1-88656459607d}, !- Space Name
  Outdoors,                               !- Outside Boundary Condition
  ,                                       !- Outside Boundary Condition Object
  SunExposed,                             !- Sun Exposure
  WindExposed,                            !- Wind Exposure
  ,                                       !- View Factor to Ground
  ,                                       !- Number of Vertices
  -50, -50, 2.4384,                       !- X,Y,Z Vertex 1 {m}
  -50, 45, 2.4384,                        !- X,Y,Z Vertex 2 {m}
  -180, 45, 2.4384,                       !- X,Y,Z Vertex 3 {m}
  -180, -50, 2.4384;                      !- X,Y,Z Vertex 4 {m}

OS:Surface,
  {55e3d62c-df02-4149-a2fe-0436ef6642c4}, !- Handle
  Face 2,                                 !- Name
  Wall,                                   !- Surface Type
  ,                                       !- Construction Name
  {cc29e4d6-16dd-4e85-8fe1-88656459607d}, !- Space Name
  Outdoors,                               !- Outside Boundary Condition
  ,                                       !- Outside Boundary Condition Object
  SunExposed,                             !- Sun Exposure
  WindExposed,                            !- Wind Exposure
  ,                                       !- View Factor to Ground
  ,                                       !- Number of Vertices
  -180, -50, 2.4384,                      !- X,Y,Z Vertex 1 {m}
  -180, 45, 2.4384,                       !- X,Y,Z Vertex 2 {m}
  -180, 45, 0,                            !- X,Y,Z Vertex 3 {m}
  -180, -50, 0;                           !- X,Y,Z Vertex 4 {m}

OS:Surface,
  {2072cb73-e70f-4f80-8de0-7b20bb9f559e}, !- Handle
  Face 3,                                 !- Name
  Wall,                                   !- Surface Type
  ,                                       !- Construction Name
  {cc29e4d6-16dd-4e85-8fe1-88656459607d}, !- Space Name
  Outdoors,                               !- Outside Boundary Condition
  ,                                       !- Outside Boundary Condition Object
  SunExposed,                             !- Sun Exposure
  WindExposed,                            !- Wind Exposure
  ,                                       !- View Factor to Ground
  ,                                       !- Number of Vertices
  -180, 45, 2.4384,                       !- X,Y,Z Vertex 1 {m}
  -50, 45, 2.4384,                        !- X,Y,Z Vertex 2 {m}
  -50, 45, 0,                             !- X,Y,Z Vertex 3 {m}
  -180, 45, 0;                            !- X,Y,Z Vertex 4 {m}

OS:Surface,
  {611caf14-c483-4e87-a194-c1e392bfbdd1}, !- Handle
  Face 4,                                 !- Name
  Wall,                                   !- Surface Type
  ,                                       !- Construction Name
  {cc29e4d6-16dd-4e85-8fe1-88656459607d}, !- Space Name
  Surface,                                !- Outside Boundary Condition
  {281ac266-e371-4a4d-b9dd-334f7b4f6d26}, !- Outside Boundary Condition Object
  NoSun,                                  !- Sun Exposure
  NoWind,                                 !- Wind Exposure
  ,                                       !- View Factor to Ground
  ,                                       !- Number of Vertices
  -50, 45, 2.4384,                        !- X,Y,Z Vertex 1 {m}
  -50, -50, 2.4384,                       !- X,Y,Z Vertex 2 {m}
  -50, -50, 0,                            !- X,Y,Z Vertex 3 {m}
  -50, 45, 0;                             !- X,Y,Z Vertex 4 {m}

OS:Surface,
  {fe9b33b6-0d76-498c-a087-743c598277ac}, !- Handle
  Face 5,                                 !- Name
  Wall,                                   !- Surface Type
  ,                                       !- Construction Name
  {cc29e4d6-16dd-4e85-8fe1-88656459607d}, !- Space Name
  Outdoors,                               !- Outside Boundary Condition
  ,                                       !- Outside Boundary Condition Object
  SunExposed,                             !- Sun Exposure
  WindExposed,                            !- Wind Exposure
  ,                                       !- View Factor to Ground
  ,                                       !- Number of Vertices
  -50, -50, 2.4384,                       !- X,Y,Z Vertex 1 {m}
  -180, -50, 2.4384,                      !- X,Y,Z Vertex 2 {m}
  -180, -50, 0,                           !- X,Y,Z Vertex 3 {m}
  -50, -50, 0;                            !- X,Y,Z Vertex 4 {m}

OS:WeatherFile,
  {1856a32c-2664-4015-b0b7-0d0fca71893f}, !- Handle
  Chicago Ohare Intl Ap,                  !- City
  IL,                                     !- State Province Region
  USA,                                    !- Country
  TMY3,                                   !- Data Source
  725300,                                 !- WMO Number
  41.98,                                  !- Latitude {deg}
  -87.92,                                 !- Longitude {deg}
  -6,                                     !- Time Zone {hr}
  201,                                    !- Elevation {m}
  file:USA_IL_Chicago-OHare.Intl.AP.725300_TMY3.epw, !- Url
  C254B53F;                               !- Checksum

OS:DefaultConstructionSet,
  {712b3e32-0aa3-474a-93f4-2176bc93a468}, !- Handle
  189.1-2009 - CZ5 - Office,              !- Name
  {7f43506e-e0b4-4a79-99c3-e0c30bee5bb3}, !- Default Exterior Surface Constructions Name
  {4005fc50-ee0f-485f-b3f6-a0a73eb65ea5}, !- Default Interior Surface Constructions Name
  {4223c3a0-89d9-425a-8844-8e5a007d262e}, !- Default Ground Contact Surface Constructions Name
  {a512969b-bf6d-4d36-8d10-7f46c0b598d1}, !- Default Exterior SubSurface Constructions Name
  {bee41864-02be-4525-b3dc-eecc81421d85}, !- Default Interior SubSurface Constructions Name
  {6e72206f-4d0a-446d-803d-1bd2c4c9a19c}, !- Interior Partition Construction Name
  ,                                       !- Space Shading Construction Name
  ,                                       !- Building Shading Construction Name
  ;                                       !- Site Shading Construction Name

OS:DefaultSurfaceConstructions,
  {7f43506e-e0b4-4a79-99c3-e0c30bee5bb3}, !- Handle
  Default Surface Constructions 13,       !- Name
  {d9ab7000-7884-4d8f-83ef-0a076b037fdf}, !- Floor Construction Name
  {eea8f63d-f2cc-4a21-9ecb-df942579a39d}, !- Wall Construction Name
  {dcd931c1-db4c-47cb-88ac-a64f5d535dd8}; !- Roof Ceiling Construction Name

OS:DefaultSurfaceConstructions,
  {4005fc50-ee0f-485f-b3f6-a0a73eb65ea5}, !- Handle
  Default Surface Constructions 14,       !- Name
  {40f4a1e2-3b11-40c9-a5b6-fb136929f135}, !- Floor Construction Name
  {3ea61ee2-fb24-4446-bd7e-a55d92506824}, !- Wall Construction Name
  {424a4404-ed2e-4572-b302-5771de7ba6de}; !- Roof Ceiling Construction Name

OS:DefaultSurfaceConstructions,
  {4223c3a0-89d9-425a-8844-8e5a007d262e}, !- Handle
  Default Surface Constructions 15,       !- Name
  {d9ab7000-7884-4d8f-83ef-0a076b037fdf}, !- Floor Construction Name
  {d9ab7000-7884-4d8f-83ef-0a076b037fdf}, !- Wall Construction Name
  {d9ab7000-7884-4d8f-83ef-0a076b037fdf}; !- Roof Ceiling Construction Name

OS:DefaultSubSurfaceConstructions,
  {a512969b-bf6d-4d36-8d10-7f46c0b598d1}, !- Handle
  Default Sub Surface Constructions 9,    !- Name
  {8e71955a-4028-48b9-8445-53fca5cfcd4d}, !- Fixed Window Construction Name
  {8e71955a-4028-48b9-8445-53fca5cfcd4d}, !- Operable Window Construction Name
  {00b561f1-afb7-47c0-8325-487cc23afa3a}, !- Door Construction Name
  ,                                       !- Glass Door Construction Name
  ,                                       !- Overhead Door Construction Name
  ,                                       !- Skylight Construction Name
  {7492d3c7-ba95-4be3-b3f7-f787f8bdc042}, !- Tubular Daylight Dome Construction Name
  {7492d3c7-ba95-4be3-b3f7-f787f8bdc042}; !- Tubular Daylight Diffuser Construction Name

OS:DefaultSubSurfaceConstructions,
  {bee41864-02be-4525-b3dc-eecc81421d85}, !- Handle
  Default Sub Surface Constructions 10,   !- Name
  {7492d3c7-ba95-4be3-b3f7-f787f8bdc042}, !- Fixed Window Construction Name
  {7492d3c7-ba95-4be3-b3f7-f787f8bdc042}, !- Operable Window Construction Name