
OS:Version,
  {5511f5c8-9cba-4866-ad8e-7b85f35d8021}, !- Handle
  2.7.1;                                  !- Version Identifier

OS:Material,
  {ef0664dc-4c4c-4cc5-ab1e-2d07948eb73f}, !- Handle
  Wood shingle  (WS01),                   !- Name
  MediumRough,                            !- Roughness
  0.017769,                               !- Thickness {m}
  0.11544,                                !- Conductivity {W/m-K}
  512.64,                                 !- Density {kg/m3}
  1256.04;                                !- Specific Heat {J/kg-K}

OS:Material:NoMass,
  {a82e9935-dc4f-4027-b98f-7d37e1d2aef1}, !- Handle
  Bldg paper felt  (BP01),                !- Name
  Smooth,                                 !- Roughness
  0.01057;                                !- Thermal Resistance {m2-K/W}

OS:Material,
  {880f8d97-199d-4270-9a8d-e51ab466dbde}, !- Handle
  Wood Sft 3/4 in  (WD01),                !- Name
  MediumRough,                            !- Roughness
  0.019049,                               !- Thickness {m}
  0.11544,                                !- Conductivity {W/m-K}
  512.64,                                 !- Density {kg/m3}
  1381.644;                               !- Specific Heat {J/kg-K}

OS:Material:NoMass,
  {4c37a3c6-b85a-4946-b2b5-f060412587b7}, !- Handle
  Minwool batt R13 w/ 2x4 frame,          !- Name
  Smooth,                                 !- Roughness
  1.6255;                                 !- Thermal Resistance {m2-K/W}

OS:Material,
  {fd224cca-a991-4398-a819-f26e10aeeb63}, !- Handle
  GypBd 5/8 in  (GP02),                   !- Name
  MediumRough,                            !- Roughness
  0.015879,                               !- Thickness {m}
  0.160266,                               !- Conductivity {W/m-K}
  801,                                    !- Density {kg/m3}
  837.36;                                 !- Specific Heat {J/kg-K}

OS:Material:NoMass,
  {485be1b0-67f6-407c-b80e-043356dc1947}, !- Handle
  Air space,                              !- Name
  Smooth,                                 !- Roughness
  0.10919;                                !- Thermal Resistance {m2-K/W}

OS:Material,
  {ac076ff0-ea23-4168-a57d-edec68186f8e}, !- Handle
  Blt-Up roof 3/8 in  (BR01),             !- Name
  MediumRough,                            !- Roughness
  0.00954,                                !- Thickness {m}
  0.162516,                               !- Conductivity {W/m-K}
  1121.4,                                 !- Density {kg/m3}
  1465.38;                                !- Specific Heat {J/kg-K}

OS:Material,
  {e0a235dd-20dc-4c8a-8a22-e2a9d7df1d2a}, !- Handle
  MinBd 3 in R-10.4  (IN24),              !- Name
  MediumRough,                            !- Roughness
  0.076196,                               !- Thickness {m}
  0.041538,                               !- Conductivity {W/m-K}
  240.3,                                  !- Density {kg/m3}
  711.756;                                !- Specific Heat {J/kg-K}

OS:Material:NoMass,
  {e3ce0d6c-46f7-41d3-81c5-ec1e3882160d}, !- Handle
  UG surface fictitious insulation,       !- Name
  Smooth,                                 !- Roughness
  5.28331;                                !- Thermal Resistance {m2-K/W}

OS:Material,
  {6a18d02d-d833-4047-8250-ebdbca6cc72d}, !- Handle
  Soil 8 in,                              !- Name
  MediumRough,                            !- Roughness
  0.204206,                               !- Thickness {m}
  1.730735,                               !- Conductivity {W/m-K}
  1842.3,                                 !- Density {kg/m3}
  837.36;                                 !- Specific Heat {J/kg-K}

OS:Material,
  {40eb0f15-6892-4662-8b6f-59513b38c9c9}, !- Handle
  Conc heavyweight 140lb 8 in  (CC05),    !- Name
  MediumRough,                            !- Roughness
  0.2032,                                 !- Thickness {m}
  1.311205,                               !- Conductivity {W/m-K}
  2242.8,                                 !- Density {kg/m3}
  837.36;                                 !- Specific Heat {J/kg-K}

OS:Material:NoMass,
  {7fbdff44-3d3c-4be4-938e-563bab2c9dba}, !- Handle
  Carpet fiber pad  (CP01),               !- Name
  Smooth,                                 !- Roughness
  0.36631;                                !- Thermal Resistance {m2-K/W}

OS:Construction,
  {fad59563-f2be-4566-9c6f-75ad66ca6d94}, !- Handle
  R-13 wood frame wall,                   !- Name
  ,                                       !- Surface Rendering Name
  {ef0664dc-4c4c-4cc5-ab1e-2d07948eb73f}, !- Layer 1
  {a82e9935-dc4f-4027-b98f-7d37e1d2aef1}, !- Layer 2
  {880f8d97-199d-4270-9a8d-e51ab466dbde}, !- Layer 3
  {4c37a3c6-b85a-4946-b2b5-f060412587b7}, !- Layer 4
  {fd224cca-a991-4398-a819-f26e10aeeb63}; !- Layer 5

OS:Construction,
  {458d7a16-8cc2-411d-b0c2-41226a3bc00f}, !- Handle
  R-0 metal frame wall,                   !- Name
  ,                                       !- Surface Rendering Name
  {fd224cca-a991-4398-a819-f26e10aeeb63}, !- Layer 1
  {485be1b0-67f6-407c-b80e-043356dc1947}, !- Layer 2
  {fd224cca-a991-4398-a819-f26e10aeeb63}; !- Layer 3

OS:Construction,
  {97f9197f-a271-4b18-a9a7-05f28a5c67d3}, !- Handle
  R-20 over roof deck - cool roof,        !- Name
  ,                                       !- Surface Rendering Name
  {ac076ff0-ea23-4168-a57d-edec68186f8e}, !- Layer 1
  {a82e9935-dc4f-4027-b98f-7d37e1d2aef1}, !- Layer 2
  {e0a235dd-20dc-4c8a-8a22-e2a9d7df1d2a}, !- Layer 3
  {e0a235dd-20dc-4c8a-8a22-e2a9d7df1d2a}, !- Layer 4
  {880f8d97-199d-4270-9a8d-e51ab466dbde}; !- Layer 5

OS:Construction,
  {5be970bd-675e-4ae4-bb77-7e73b740c269}, !- Handle
  Slab edge uninsulated,                  !- Name
  ,                                       !- Surface Rendering Name
  {e3ce0d6c-46f7-41d3-81c5-ec1e3882160d}, !- Layer 1
  {6a18d02d-d833-4047-8250-ebdbca6cc72d}, !- Layer 2
  {40eb0f15-6892-4662-8b6f-59513b38c9c9}, !- Layer 3
  {7fbdff44-3d3c-4be4-938e-563bab2c9dba}; !- Layer 4

OS:ScheduleTypeLimits,
  {10a97bdd-d178-435b-8e89-5feb539f17d4}, !- Handle
  Fraction,                               !- Name
  ,                                       !- Lower Limit Value
  ,                                       !- Upper Limit Value
  ,                                       !- Numeric Type
  Dimensionless;                          !- Unit Type

OS:YearDescription,
  {4332e873-f95d-4c9d-8314-7d05da60c345}, !- Handle
  2019,                                   !- Calendar Year
  ,                                       !- Day of Week for Start Day
  ;                                       !- Is Leap Year

OS:ThermalZone,
  {83e6254d-5cad-4397-b4af-601e22737279}, !- Handle
  VAV Box Electric-1,                     !- Name
  ,                                       !- Multiplier
  ,                                       !- Ceiling Height {m}
  487.420145735823,                       !- Volume {m3}
  ,                                       !- Floor Area {m2}
  ,                                       !- Zone Inside Convection Algorithm
  ,                                       !- Zone Outside Convection Algorithm
  ,                                       !- Zone Conditioning Equipment List Name
  {c6ea30e7-9753-44be-bf96-4e50b65f5afb}, !- Zone Air Inlet Port List
  {138f5211-3249-4527-88d5-9971f3248885}, !- Zone Air Exhaust Port List
  {f24d456c-bd1b-49ab-8a83-cf599eca8caa}, !- Zone Air Node Name
  {ab9bcc68-28b0-49ec-80a5-7258d13ddc38}, !- Zone Return Air Port List
  ,                                       !- Primary Daylighting Control Name
  ,                                       !- Fraction of Zone Controlled by Primary Daylighting Control
  ,                                       !- Secondary Daylighting Control Name
  ,                                       !- Fraction of Zone Controlled by Secondary Daylighting Control
  ,                                       !- Illuminance Map Name
  ,                                       !- Group Rendering Name
  {5b49425d-97e7-44a9-92a7-121be09b8947}, !- Thermostat Name
  No;                                     !- Use Ideal Air Loads

OS:Node,
  {9c8b55ce-b894-4458-bbf5-1c8de20ad67a}, !- Handle
  {31334e51-037c-4bdc-9cc2-2d7c5d18f999}, !- Name
  {f24d456c-bd1b-49ab-8a83-cf599eca8caa}, !- Inlet Port
  ;                                       !- Outlet Port

OS:Connection,
  {f24d456c-bd1b-49ab-8a83-cf599eca8caa}, !- Handle
  {82d0b527-278a-4a10-834f-54e7b787ebd1}, !- Name
  {83e6254d-5cad-4397-b4af-601e22737279}, !- Source Object
  11,                                     !- Outlet Port
  {9c8b55ce-b894-4458-bbf5-1c8de20ad67a}, !- Target Object
  2;                                      !- Inlet Port

OS:PortList,
  {c6ea30e7-9753-44be-bf96-4e50b65f5afb}, !- Handle
  {6d74c2ba-684f-4d9c-8de3-771971f39622}, !- Name
  {83e6254d-5cad-4397-b4af-601e22737279}, !- HVAC Component
  {0665965d-182e-441c-b44b-8fab4b876054}; !- Port 1

OS:PortList,
  {138f5211-3249-4527-88d5-9971f3248885}, !- Handle
  {115ddc28-deff-4b5e-9794-3e8594690960}, !- Name
  {83e6254d-5cad-4397-b4af-601e22737279}; !- HVAC Component

OS:PortList,
  {ab9bcc68-28b0-49ec-80a5-7258d13ddc38}, !- Handle
  {f07a5bd5-7c48-4469-a5c6-bd73960881bd}, !- Name
  {83e6254d-5cad-4397-b4af-601e22737279}, !- HVAC Component
  {846100fa-1373-4ce9-9610-cfc065f7bc1c}; !- Port 1

OS:Sizing:Zone,
  {ab5873f5-6c57-432f-a2bf-523d523cf8df}, !- Handle
  {83e6254d-5cad-4397-b4af-601e22737279}, !- Zone or ZoneList Name
  SupplyAirTemperature,                   !- Zone Cooling Design Supply Air Temperature Input Method
  14,                                     !- Zone Cooling Design Supply Air Temperature {C}
  11.11,                                  !- Zone Cooling Design Supply Air Temperature Difference {deltaC}
  SupplyAirTemperature,                   !- Zone Heating Design Supply Air Temperature Input Method
  40,                                     !- Zone Heating Design Supply Air Temperature {C}
  11.11,                                  !- Zone Heating Design Supply Air Temperature Difference {deltaC}
  0.0085,                                 !- Zone Cooling Design Supply Air Humidity Ratio {kg-H2O/kg-air}
  0.008,                                  !- Zone Heating Design Supply Air Humidity Ratio {kg-H2O/kg-air}
  ,                                       !- Zone Heating Sizing Factor
  ,                                       !- Zone Cooling Sizing Factor
  DesignDay,                              !- Cooling Design Air Flow Method
  ,                                       !- Cooling Design Air Flow Rate {m3/s}
  ,                                       !- Cooling Minimum Air Flow per Zone Floor Area {m3/s-m2}
  ,                                       !- Cooling Minimum Air Flow {m3/s}
  ,                                       !- Cooling Minimum Air Flow Fraction
  DesignDay,                              !- Heating Design Air Flow Method
  ,                                       !- Heating Design Air Flow Rate {m3/s}
  ,                                       !- Heating Maximum Air Flow per Zone Floor Area {m3/s-m2}
  ,                                       !- Heating Maximum Air Flow {m3/s}
  ,                                       !- Heating Maximum Air Flow Fraction
  ,                                       !- Design Zone Air Distribution Effectiveness in Cooling Mode
  ,                                       !- Design Zone Air Distribution Effectiveness in Heating Mode
  No,                                     !- Account for Dedicated Outdoor Air System
  NeutralSupplyAir,                       !- Dedicated Outdoor Air System Control Strategy
  autosize,                               !- Dedicated Outdoor Air Low Setpoint Temperature for Design {C}
  autosize;                               !- Dedicated Outdoor Air High Setpoint Temperature for Design {C}

OS:ZoneHVAC:EquipmentList,
  {349e0948-e398-4b41-99b9-1e63c8dd2806}, !- Handle
  {2864e82e-9c23-4170-a510-f8a5b65b5c7f}, !- Name
  {83e6254d-5cad-4397-b4af-601e22737279}, !- Thermal Zone
  ,                                       !- Load Distribution Scheme
  {0e063648-016b-44f4-83a7-66bc7937f7aa}, !- Zone Equipment 1
  1,                                      !- Zone Equipment Cooling Sequence 1
  1;                                      !- Zone Equipment Heating or No-Load Sequence 1

OS:ThermalZone,
  {850bbe3d-d097-4ae1-9d55-350304215fb1}, !- Handle
  VAV Box Furnace-1,                      !- Name
  ,                                       !- Multiplier
  ,                                       !- Ceiling Height {m}
  448.588404498816,                       !- Volume {m3}
  ,                                       !- Floor Area {m2}
  ,                                       !- Zone Inside Convection Algorithm
  ,                                       !- Zone Outside Convection Algorithm
  ,                                       !- Zone Conditioning Equipment List Name
  {c35ff240-86f2-483a-ac8b-cf0c954c59a8}, !- Zone Air Inlet Port List
  {777f7ea6-8f6c-4559-abae-0f7366291a7f}, !- Zone Air Exhaust Port List
  {15de94d8-79e8-4602-b451-36ac265d5c9f}, !- Zone Air Node Name
  {abf1eeb0-b71b-49aa-a042-c0861c29e1ce}, !- Zone Return Air Port List
  ,                                       !- Primary Daylighting Control Name
  ,                                       !- Fraction of Zone Controlled by Primary Daylighting Control
  ,                                       !- Secondary Daylighting Control Name
  ,                                       !- Fraction of Zone Controlled by Secondary Daylighting Control
  ,                                       !- Illuminance Map Name
  ,                                       !- Group Rendering Name
  {c9216ca3-567c-4596-9b7d-05a2c613c3ba}, !- Thermostat Name
  No;                                     !- Use Ideal Air Loads

OS:Node,
  {b0db33e1-0d2e-413c-9be5-4d682b4e6a82}, !- Handle
  {6504cf80-c4a0-4844-b25e-8a6e3672af15}, !- Name
  {15de94d8-79e8-4602-b451-36ac265d5c9f}, !- Inlet Port
  ;                                       !- Outlet Port

OS:Connection,
  {15de94d8-79e8-4602-b451-36ac265d5c9f}, !- Handle
  {4a601922-298e-405d-9451-8c26c5e2e732}, !- Name
  {850bbe3d-d097-4ae1-9d55-350304215fb1}, !- Source Object
  11,                                     !- Outlet Port
  {b0db33e1-0d2e-413c-9be5-4d682b4e6a82}, !- Target Object
  2;                                      !- Inlet Port

OS:PortList,
  {c35ff240-86f2-483a-ac8b-cf0c954c59a8}, !- Handle
  {9d9a343a-bed3-479b-bc33-1d0e4eac3450}, !- Name
  {850bbe3d-d097-4ae1-9d55-350304215fb1}, !- HVAC Component
  {a1cbc1c3-815a-4186-89eb-951249edfc90}; !- Port 1

OS:PortList,
  {777f7ea6-8f6c-4559-abae-0f7366291a7f}, !- Handle
  {a360c980-6fd5-46ac-9f82-47185e24205c}, !- Name
  {850bbe3d-d097-4ae1-9d55-350304215fb1}; !- HVAC Component

OS:PortList,
  {abf1eeb0-b71b-49aa-a042-c0861c29e1ce}, !- Handle
  {d4bcd1a0-44fd-4e9c-8641-1e4f99adc9f6}, !- Name
  {850bbe3d-d097-4ae1-9d55-350304215fb1}, !- HVAC Component
  {163fba39-a391-4005-ba7f-3829bef0026d}; !- Port 1

OS:Sizing:Zone,
  {bac96ab7-a5db-4b14-9052-1c58efafac50}, !- Handle
  {850bbe3d-d097-4ae1-9d55-350304215fb1}, !- Zone or ZoneList Name
  SupplyAirTemperature,                   !- Zone Cooling Design Supply Air Temperature Input Method
  14,                                     !- Zone Cooling Design Supply Air Temperature {C}
  11.11,                                  !- Zone Cooling Design Supply Air Temperature Difference {deltaC}
  SupplyAirTemperature,                   !- Zone Heating Design Supply Air Temperature Input Method
  40,                                     !- Zone Heating Design Supply Air Temperature {C}
  11.11,                                  !- Zone Heating Design Supply Air Temperature Difference {deltaC}
  0.0085,                                 !- Zone Cooling Design Supply Air Humidity Ratio {kg-H2O/kg-air}
  0.008,                                  !- Zone Heating Design Supply Air Humidity Ratio {kg-H2O/kg-air}
  ,                                       !- Zone Heating Sizing Factor
  ,                                       !- Zone Cooling Sizing Factor
  DesignDay,                              !- Cooling Design Air Flow Method
  ,                                       !- Cooling Design Air Flow Rate {m3/s}
  ,                                       !- Cooling Minimum Air Flow per Zone Floor Area {m3/s-m2}
  ,                                       !- Cooling Minimum Air Flow {m3/s}
  ,                                       !- Cooling Minimum Air Flow Fraction
  DesignDay,                              !- Heating Design Air Flow Method
  ,                                       !- Heating Design Air Flow Rate {m3/s}
  ,                                       !- Heating Maximum Air Flow per Zone Floor Area {m3/s-m2}
  ,                                       !- Heating Maximum Air Flow {m3/s}
  ,                                       !- Heating Maximum Air Flow Fraction
  ,                                       !- Design Zone Air Distribution Effectiveness in Cooling Mode
  ,                                       !- Design Zone Air Distribution Effectiveness in Heating Mode
  No,                                     !- Account for Dedicated Outdoor Air System
  NeutralSupplyAir,                       !- Dedicated Outdoor Air System Control Strategy
  autosize,                               !- Dedicated Outdoor Air Low Setpoint Temperature for Design {C}
  autosize;                               !- Dedicated Outdoor Air High Setpoint Temperature for Design {C}

OS:ZoneHVAC:EquipmentList,
  {e2522314-0e6a-46e3-9d61-ad9d67bcb534}, !- Handle
  {0f42327a-a961-45ab-8a8e-46f630aeb229}, !- Name
  {850bbe3d-d097-4ae1-9d55-350304215fb1}, !- Thermal Zone
  ,                                       !- Load Distribution Scheme
  {650b9b59-0021-407d-9ffc-7fe5fe66d58c}, !- Zone Equipment 1
  1,                                      !- Zone Equipment Cooling Sequence 1
  1;                                      !- Zone Equipment Heating or No-Load Sequence 1

OS:ThermalZone,
  {bbdb4ab7-a6c9-45f5-b33f-f2688c59e868}, !- Handle
  VAV Box Hot Water-1,                    !- Name
  ,                                       !- Multiplier
  ,                                       !- Ceiling Height {m}
  536.058577284572,                       !- Volume {m3}
  ,                                       !- Floor Area {m2}
  ,                                       !- Zone Inside Convection Algorithm
  ,                                       !- Zone Outside Convection Algorithm
  ,                                       !- Zone Conditioning Equipment List Name
  {701b6d63-48da-4e28-bae9-99d6ed8ceb6c}, !- Zone Air Inlet Port List
  {2ceeda57-b165-4806-b047-b1fbc27d4c4d}, !- Zone Air Exhaust Port List
  {0aa38aaa-b912-44b4-ba86-061d1f3ff250}, !- Zone Air Node Name
  {c42f0444-1f35-4650-8c62-82a1e677396e}, !- Zone Return Air Port List
  ,                                       !- Primary Daylighting Control Name
  ,                                       !- Fraction of Zone Controlled by Primary Daylighting Control
  ,                                       !- Secondary Daylighting Control Name
  ,                                       !- Fraction of Zone Controlled by Secondary Daylighting Control
  ,                                       !- Illuminance Map Name
  ,                                       !- Group Rendering Name
  {66ff837f-3403-4078-ae28-4270a2ff70b6}, !- Thermostat Name
  No;                                     !- Use Ideal Air Loads

OS:Node,
  {0d415c62-5e2f-4939-aa49-a572054450e1}, !- Handle
  {b219fa25-615c-4227-910c-eebfa3d73409}, !- Name
  {0aa38aaa-b912-44b4-ba86-061d1f3ff250}, !- Inlet Port
  ;                                       !- Outlet Port

OS:Connection,
  {0aa38aaa-b912-44b4-ba86-061d1f3ff250}, !- Handle
  {6d1ad067-107c-4f4a-ae75-c04a923424fd}, !- Name
  {bbdb4ab7-a6c9-45f5-b33f-f2688c59e868}, !- Source Object
  11,                                     !- Outlet Port
  {0d415c62-5e2f-4939-aa49-a572054450e1}, !- Target Object
  2;                                      !- Inlet Port

OS:PortList,
  {701b6d63-48da-4e28-bae9-99d6ed8ceb6c}, !- Handle
  {1d812aaa-1bda-422d-bd8c-27d03ef6d873}, !- Name
  {bbdb4ab7-a6c9-45f5-b33f-f2688c59e868}, !- HVAC Component
  {a0fd3188-1150-4b57-aa2f-1cd53b130449}; !- Port 1

OS:PortList,
  {2ceeda57-b165-4806-b047-b1fbc27d4c4d}, !- Handle
  {17f88371-1e78-4bae-948f-6b9150effd30}, !- Name
  {bbdb4ab7-a6c9-45f5-b33f-f2688c59e868}; !- HVAC Component

OS:PortList,
  {c42f0444-1f35-4650-8c62-82a1e677396e}, !- Handle
  {da39a0c4-65db-4189-a1d7-dc2b76e83861}, !- Name
  {bbdb4ab7-a6c9-45f5-b33f-f2688c59e868}, !- HVAC Component
  {b5f74057-85ed-4096-973e-59aa285e640b}; !- Port 1

OS:Sizing:Zone,
  {39c77189-5dae-4198-b458-06e8109e23f5}, !- Handle
  {bbdb4ab7-a6c9-45f5-b33f-f2688c59e868}, !- Zone or ZoneList Name
  SupplyAirTemperature,                   !- Zone Cooling Design Supply Air Temperature Input Method
  14,                                     !- Zone Cooling Design Supply Air Temperature {C}
  11.11,                                  !- Zone Cooling Design Supply Air Temperature Difference {deltaC}
  SupplyAirTemperature,                   !- Zone Heating Design Supply Air Temperature Input Method
  40,                                     !- Zone Heating Design Supply Air Temperature {C}
  11.11,                                  !- Zone Heating Design Supply Air Temperature Difference {deltaC}
  0.0085,                                 !- Zone Cooling Design Supply Air Humidity Ratio {kg-H2O/kg-air}
  0.008,                                  !- Zone Heating Design Supply Air Humidity Ratio {kg-H2O/kg-air}
  ,                                       !- Zone Heating Sizing Factor
  ,                                       !- Zone Cooling Sizing Factor
  DesignDay,                              !- Cooling Design Air Flow Method
  ,                                       !- Cooling Design Air Flow Rate {m3/s}
  ,                                       !- Cooling Minimum Air Flow per Zone Floor Area {m3/s-m2}
  ,                                       !- Cooling Minimum Air Flow {m3/s}
  ,                                       !- Cooling Minimum Air Flow Fraction
  DesignDay,                              !- Heating Design Air Flow Method
  ,                                       !- Heating Design Air Flow Rate {m3/s}
  ,                                       !- Heating Maximum Air Flow per Zone Floor Area {m3/s-m2}
  ,                                       !- Heating Maximum Air Flow {m3/s}
  ,                                       !- Heating Maximum Air Flow Fraction
  ,                                       !- Design Zone Air Distribution Effectiveness in Cooling Mode
  ,                                       !- Design Zone Air Distribution Effectiveness in Heating Mode
  No,                                     !- Account for Dedicated Outdoor Air System
  NeutralSupplyAir,                       !- Dedicated Outdoor Air System Control Strategy
  autosize,                               !- Dedicated Outdoor Air Low Setpoint Temperature for Design {C}
  autosize;                               !- Dedicated Outdoor Air High Setpoint Temperature for Design {C}

OS:ZoneHVAC:EquipmentList,
  {049f9ea1-5544-44ed-a26f-47c1e92ee0b7}, !- Handle
  {bcb75ebf-560a-457a-b986-8398cfd21bf5}, !- Name
  {bbdb4ab7-a6c9-45f5-b33f-f2688c59e868}, !- Thermal Zone
  ,                                       !- Load Distribution Scheme
  {fba35547-771b-46a6-bf4e-71e52cefc753}, !- Zone Equipment 1
  1,                                      !- Zone Equipment Cooling Sequence 1
  1;                                      !- Zone Equipment Heating or No-Load Sequence 1

OS:ThermalZone,
  {3c725caf-e982-4662-8b3b-66a5210bc10f}, !- Handle
  VAV Box No Reheat-1,                    !- Name
  ,                                       !- Multiplier
  ,                                       !- Ceiling Height {m}
  493.914048164767,                       !- Volume {m3}
  ,                                       !- Floor Area {m2}
  ,                                       !- Zone Inside Convection Algorithm
  ,                                       !- Zone Outside Convection Algorithm
  ,                                       !- Zone Conditioning Equipment List Name
  {2a08b598-64b3-4487-9d42-4b7098b0c0c5}, !- Zone Air Inlet Port List
  {28c9d37e-e249-4030-8991-8cc6f59fc776}, !- Zone Air Exhaust Port List
  {7ad78e04-2a19-4736-b22d-07cfdccb20ec}, !- Zone Air Node Name
  {70540fd5-889f-497b-93ac-6926d834a50d}, !- Zone Return Air Port List
  ,                                       !- Primary Daylighting Control Name
  ,                                       !- Fraction of Zone Controlled by Primary Daylighting Control
  ,                                       !- Secondary Daylighting Control Name
  ,                                       !- Fraction of Zone Controlled by Secondary Daylighting Control
  ,                                       !- Illuminance Map Name
  ,                                       !- Group Rendering Name
  {5afad749-6e73-46e6-8546-c5f7a0bf429e}, !- Thermostat Name
  No;                                     !- Use Ideal Air Loads

OS:Node,
  {3f25938f-1a3c-4ae2-8ff3-4ae8f6c55d0f}, !- Handle
  {581b0d74-5313-4f23-8cf0-75ac399eac7d}, !- Name
  {7ad78e04-2a19-4736-b22d-07cfdccb20ec}, !- Inlet Port
  ;                                       !- Outlet Port

OS:Connection,
  {7ad78e04-2a19-4736-b22d-07cfdccb20ec}, !- Handle
  {3dab62bb-f680-4f55-9de0-7323b96b5f5f}, !- Name
  {3c725caf-e982-4662-8b3b-66a5210bc10f}, !- Source Object
  11,                                     !- Outlet Port
  {3f25938f-1a3c-4ae2-8ff3-4ae8f6c55d0f}, !- Target Object
  2;                                      !- Inlet Port

OS:PortList,
  {2a08b598-64b3-4487-9d42-4b7098b0c0c5}, !- Handle
  {b2dc0194-7486-40aa-89a3-1a9b466b38f4}, !- Name
  {3c725caf-e982-4662-8b3b-66a5210bc10f}, !- HVAC Component
  {e1101838-6c40-482d-b773-34a1e5f34e7b}; !- Port 1

OS:PortList,
  {28c9d37e-e249-4030-8991-8cc6f59fc776}, !- Handle
  {8f936c87-f398-48f9-b3f2-0eef4b657b56}, !- Name
  {3c725caf-e982-4662-8b3b-66a5210bc10f}; !- HVAC Component

OS:PortList,
  {70540fd5-889f-497b-93ac-6926d834a50d}, !- Handle
  {8d7bd448-a857-43c2-931b-f4fcd3177996}, !- Name
  {3c725caf-e982-4662-8b3b-66a5210bc10f}, !- HVAC Component
  {c174605d-99c2-4bfc-9c0b-f89713d6ed79}; !- Port 1

OS:Sizing:Zone,
  {22216c34-78df-4ecf-9d01-b9e97be6433d}, !- Handle
  {3c725caf-e982-4662-8b3b-66a5210bc10f}, !- Zone or ZoneList Name
  SupplyAirTemperature,                   !- Zone Cooling Design Supply Air Temperature Input Method
  14,                                     !- Zone Cooling Design Supply Air Temperature {C}
  11.11,                                  !- Zone Cooling Design Supply Air Temperature Difference {deltaC}
  SupplyAirTemperature,                   !- Zone Heating Design Supply Air Temperature Input Method
  40,                                     !- Zone Heating Design Supply Air Temperature {C}
  11.11,                                  !- Zone Heating Design Supply Air Temperature Difference {deltaC}
  0.0085,                                 !- Zone Cooling Design Supply Air Humidity Ratio {kg-H2O/kg-air}
  0.008,                                  !- Zone Heating Design Supply Air Humidity Ratio {kg-H2O/kg-air}
  ,                                       !- Zone Heating Sizing Factor
  ,                                       !- Zone Cooling Sizing Factor
  DesignDay,                              !- Cooling Design Air Flow Method
  ,                                       !- Cooling Design Air Flow Rate {m3/s}
  ,                                       !- Cooling Minimum Air Flow per Zone Floor Area {m3/s-m2}
  ,                                       !- Cooling Minimum Air Flow {m3/s}
  ,                                       !- Cooling Minimum Air Flow Fraction
  DesignDay,                              !- Heating Design Air Flow Method
  ,                                       !- Heating Design Air Flow Rate {m3/s}
  ,                                       !- Heating Maximum Air Flow per Zone Floor Area {m3/s-m2}
  ,                                       !- Heating Maximum Air Flow {m3/s}
  ,                                       !- Heating Maximum Air Flow Fraction
  ,                                       !- Design Zone Air Distribution Effectiveness in Cooling Mode
  ,                                       !- Design Zone Air Distribution Effectiveness in Heating Mode
  No,                                     !- Account for Dedicated Outdoor Air System
  NeutralSupplyAir,                       !- Dedicated Outdoor Air System Control Strategy
  autosize,                               !- Dedicated Outdoor Air Low Setpoint Temperature for Design {C}
  autosize;                               !- Dedicated Outdoor Air High Setpoint Temperature for Design {C}

OS:ZoneHVAC:EquipmentList,
  {073d4ff9-efa8-4424-b0bc-975ddfa85ea5}, !- Handle
  {ef60df6c-edb0-47f7-ae5e-ac709efe31f0}, !- Name
  {3c725caf-e982-4662-8b3b-66a5210bc10f}, !- Thermal Zone
  ,                                       !- Load Distribution Scheme
  {ea999f60-ce63-4dc1-86d2-167509f4e31c}, !- Zone Equipment 1
  1,                                      !- Zone Equipment Cooling Sequence 1
  1;                                      !- Zone Equipment Heating or No-Load Sequence 1

OS:Facility,
  {0246ecaa-cf9f-4683-a116-cd0ca1da854d}; !- Handle

OS:Building,
  {833792e7-4839-4b4f-b5ad-a7bd6a03a756}, !- Handle
  Project Name,                           !- Name
  ,                                       !- Building Sector Type
  ,                                       !- North Axis {deg}
  ,                                       !- Nominal Floor to Floor Height {m}
  {59562208-a37d-4e25-b326-02cc1c9a4b0f}, !- Space Type Name