
OS:Version,
  {db256c17-2395-4360-afba-2b552957b047}, !- Handle
  2.7.1;                                  !- Version Identifier

OS:Material,
  {ae738070-91a4-4251-81c4-c2089aff268d}, !- Handle
  Wood shingle  (WS01),                   !- Name
  MediumRough,                            !- Roughness
  0.017769,                               !- Thickness {m}
  0.11544,                                !- Conductivity {W/m-K}
  512.64,                                 !- Density {kg/m3}
  1256.04;                                !- Specific Heat {J/kg-K}

OS:Material:NoMass,
  {0a76deb5-9a40-4ecb-ab32-e587d4c1b940}, !- Handle
  Bldg paper felt  (BP01),                !- Name
  Smooth,                                 !- Roughness
  0.01057;                                !- Thermal Resistance {m2-K/W}

OS:Material,
  {cb92aaf4-c367-423b-a88f-46a73283c206}, !- Handle
  Wood Sft 3/4 in  (WD01),                !- Name
  MediumRough,                            !- Roughness
  0.019049,                               !- Thickness {m}
  0.11544,                                !- Conductivity {W/m-K}
  512.64,                                 !- Density {kg/m3}
  1381.644;                               !- Specific Heat {J/kg-K}

OS:Material:NoMass,
  {04eba50d-7b3c-4d93-a939-99ca3c1f1f69}, !- Handle
  Minwool batt R13 w/ 2x4 frame,          !- Name
  Smooth,                                 !- Roughness
  1.6255;                                 !- Thermal Resistance {m2-K/W}

OS:Material,
  {55f12968-8257-4c82-b2a4-a1cab8dcf8e1}, !- Handle
  GypBd 5/8 in  (GP02),                   !- Name
  MediumRough,                            !- Roughness
  0.015879,                               !- Thickness {m}
  0.160266,                               !- Conductivity {W/m-K}
  801,                                    !- Density {kg/m3}
  837.36;                                 !- Specific Heat {J/kg-K}

OS:Material:NoMass,
  {b7dfec36-58b0-449c-9ab9-4e54b9413fd0}, !- Handle
  UG surface fictitious insulation,       !- Name
  Smooth,                                 !- Roughness
  5.28331;                                !- Thermal Resistance {m2-K/W}

OS:Material,
  {14ec8c56-07b0-45b4-8eb3-6f26b39c1b13}, !- Handle
  Soil 8 in,                              !- Name
  MediumRough,                            !- Roughness
  0.204206,                               !- Thickness {m}
  1.730735,                               !- Conductivity {W/m-K}
  1842.3,                                 !- Density {kg/m3}
  837.36;                                 !- Specific Heat {J/kg-K}

OS:Material,
  {fd67601d-426b-4761-842e-c6b11544ff7c}, !- Handle
  Conc heavyweight 140lb 8 in  (CC05),    !- Name
  MediumRough,                            !- Roughness
  0.2032,                                 !- Thickness {m}
  1.311205,                               !- Conductivity {W/m-K}
  2242.8,                                 !- Density {kg/m3}
  837.36;                                 !- Specific Heat {J/kg-K}

OS:Material:NoMass,
  {7db823e7-347a-4ace-afb7-e3f3a0d4ea08}, !- Handle
  Carpet fiber pad  (CP01),               !- Name
  Smooth,                                 !- Roughness
  0.36631;                                !- Thermal Resistance {m2-K/W}

OS:Material,
  {ad948027-b5a7-48c5-846f-54a4b8291732}, !- Handle
  Blt-Up roof 3/8 in  (BR01),             !- Name
  MediumRough,                            !- Roughness
  0.00954,                                !- Thickness {m}
  0.162516,                               !- Conductivity {W/m-K}
  1121.4,                                 !- Density {kg/m3}
  1465.38;                                !- Specific Heat {J/kg-K}

OS:Material,
  {2e85fb52-78aa-4f7b-9e56-baca7a80d5bf}, !- Handle
  MinBd 3 in R-10.4  (IN24),              !- Name
  MediumRough,                            !- Roughness
  0.076196,                               !- Thickness {m}
  0.041538,                               !- Conductivity {W/m-K}
  240.3,                                  !- Density {kg/m3}
  711.756;                                !- Specific Heat {J/kg-K}

OS:Construction,
  {66f3f42e-4034-4834-8dba-1fa762947151}, !- Handle
  R-13 wood frame wall,                   !- Name
  ,                                       !- Surface Rendering Name
  {ae738070-91a4-4251-81c4-c2089aff268d}, !- Layer 1
  {0a76deb5-9a40-4ecb-ab32-e587d4c1b940}, !- Layer 2
  {cb92aaf4-c367-423b-a88f-46a73283c206}, !- Layer 3
  {04eba50d-7b3c-4d93-a939-99ca3c1f1f69}, !- Layer 4
  {55f12968-8257-4c82-b2a4-a1cab8dcf8e1}; !- Layer 5

OS:Construction,
  {82b4913a-efcf-4180-bb98-b4277fb72a4d}, !- Handle
  Slab edge uninsulated,                  !- Name
  ,                                       !- Surface Rendering Name
  {b7dfec36-58b0-449c-9ab9-4e54b9413fd0}, !- Layer 1
  {14ec8c56-07b0-45b4-8eb3-6f26b39c1b13}, !- Layer 2
  {fd67601d-426b-4761-842e-c6b11544ff7c}, !- Layer 3
  {7db823e7-347a-4ace-afb7-e3f3a0d4ea08}; !- Layer 4

OS:Construction,
  {ec617f85-467a-4a06-8283-ff63b37ab9a5}, !- Handle
  R-20 over roof deck - cool roof,        !- Name
  ,                                       !- Surface Rendering Name
  {ad948027-b5a7-48c5-846f-54a4b8291732}, !- Layer 1
  {0a76deb5-9a40-4ecb-ab32-e587d4c1b940}, !- Layer 2
  {2e85fb52-78aa-4f7b-9e56-baca7a80d5bf}, !- Layer 3
  {2e85fb52-78aa-4f7b-9e56-baca7a80d5bf}, !- Layer 4
  {cb92aaf4-c367-423b-a88f-46a73283c206}; !- Layer 5

OS:ScheduleTypeLimits,
  {5aac59b8-f275-45f1-8efb-195010014ab0}, !- Handle
  Fraction,                               !- Name
  ,                                       !- Lower Limit Value
  ,                                       !- Upper Limit Value
  ,                                       !- Numeric Type
  Dimensionless;                          !- Unit Type

OS:YearDescription,
  {84927721-a864-4aef-8557-1c3916bcabb4}, !- Handle
  2019,                                   !- Calendar Year
  ,                                       !- Day of Week for Start Day
  ;                                       !- Is Leap Year

OS:ThermalZone,
  {3272d5e6-7878-4e0a-816e-68cb1a35e62a}, !- Handle
  Zone Equipment 1-1,                     !- Name
  ,                                       !- Multiplier
  ,                                       !- Ceiling Height {m}
  1097.534,                               !- Volume {m3}
  ,                                       !- Floor Area {m2}
  ,                                       !- Zone Inside Convection Algorithm
  ,                                       !- Zone Outside Convection Algorithm
  ,                                       !- Zone Conditioning Equipment List Name
  {24e5bc5c-5f2c-4be5-868b-64a9ffff800f}, !- Zone Air Inlet Port List
  {820e1169-d754-49e8-94e9-d9d542e3b09a}, !- Zone Air Exhaust Port List
  {f3cda45a-a22c-4e45-997f-dab1297985cb}, !- Zone Air Node Name
  {76dbcbdd-0d65-4083-a578-cbe3743d270e}, !- Zone Return Air Port List
  ,                                       !- Primary Daylighting Control Name
  ,                                       !- Fraction of Zone Controlled by Primary Daylighting Control
  ,                                       !- Secondary Daylighting Control Name
  ,                                       !- Fraction of Zone Controlled by Secondary Daylighting Control
  ,                                       !- Illuminance Map Name
  ,                                       !- Group Rendering Name
  {b4387d35-a77d-4c08-8192-b505e5073392}, !- Thermostat Name
  No;                                     !- Use Ideal Air Loads

OS:Node,
  {7dd04c0d-3284-417a-862b-eff4640f535e}, !- Handle
  {94b3f990-704a-469f-93f5-0776255fda15}, !- Name
  {f3cda45a-a22c-4e45-997f-dab1297985cb}, !- Inlet Port
  ;                                       !- Outlet Port

OS:Connection,
  {f3cda45a-a22c-4e45-997f-dab1297985cb}, !- Handle
  {ef6e8dad-54a8-4b58-8e10-8f10840c341d}, !- Name
  {3272d5e6-7878-4e0a-816e-68cb1a35e62a}, !- Source Object
  11,                                     !- Outlet Port
  {7dd04c0d-3284-417a-862b-eff4640f535e}, !- Target Object
  2;                                      !- Inlet Port

OS:PortList,
  {24e5bc5c-5f2c-4be5-868b-64a9ffff800f}, !- Handle
  {62f24959-d544-47bd-9fce-fea58897741b}, !- Name
  {3272d5e6-7878-4e0a-816e-68cb1a35e62a}, !- HVAC Component
  {c0a8b323-a499-4495-ae67-69a2bcfbc628}; !- Port 1

OS:PortList,
  {820e1169-d754-49e8-94e9-d9d542e3b09a}, !- Handle
  {c412521c-97ea-43f7-8255-ac6800757a5f}, !- Name
  {3272d5e6-7878-4e0a-816e-68cb1a35e62a}; !- HVAC Component

OS:PortList,
  {76dbcbdd-0d65-4083-a578-cbe3743d270e}, !- Handle
  {351976a9-47ce-4a20-9347-f3fd587ed02d}, !- Name
  {3272d5e6-7878-4e0a-816e-68cb1a35e62a}, !- HVAC Component
  {d29bc97e-398b-4a99-81f5-cb38fef9bb96}; !- Port 1

OS:Sizing:Zone,
  {4aa8ea58-2d55-4ecd-a69a-0f9916c0cee6}, !- Handle
  {3272d5e6-7878-4e0a-816e-68cb1a35e62a}, !- Zone or ZoneList Name
  SupplyAirTemperature,                   !- Zone Cooling Design Supply Air Temperature Input Method
  14,                                     !- Zone Cooling Design Supply Air Temperature {C}
  11.11,                                  !- Zone Cooling Design Supply Air Temperature Difference {deltaC}
  SupplyAirTemperature,                   !- Zone Heating Design Supply Air Temperature Input Method
  40,                                     !- Zone Heating Design Supply Air Temperature {C}
  11.11,                                  !- Zone Heating Design Supply Air Temperature Difference {deltaC}
  0.0085,                                 !- Zone Cooling Design Supply Air Humidity Ratio {kg-H2O/kg-air}
  0.008,                                  !- Zone Heating Design Supply Air Humidity Ratio {kg-H2O/kg-air}
  ,                                       !- Zone Heating Sizing Factor
  ,                                       !- Zone Cooling Sizing Factor
  DesignDay,                              !- Cooling Design Air Flow Method
  ,                                       !- Cooling Design Air Flow Rate {m3/s}
  ,                                       !- Cooling Minimum Air Flow per Zone Floor Area {m3/s-m2}
  ,                                       !- Cooling Minimum Air Flow {m3/s}
  ,                                       !- Cooling Minimum Air Flow Fraction
  DesignDay,                              !- Heating Design Air Flow Method
  ,                                       !- Heating Design Air Flow Rate {m3/s}
  ,                                       !- Heating Maximum Air Flow per Zone Floor Area {m3/s-m2}
  ,                                       !- Heating Maximum Air Flow {m3/s}
  ,                                       !- Heating Maximum Air Flow Fraction
  ,                                       !- Design Zone Air Distribution Effectiveness in Cooling Mode
  ,                                       !- Design Zone Air Distribution Effectiveness in Heating Mode
  No,                                     !- Account for Dedicated Outdoor Air System
  NeutralSupplyAir,                       !- Dedicated Outdoor Air System Control Strategy
  autosize,                               !- Dedicated Outdoor Air Low Setpoint Temperature for Design {C}
  autosize;                               !- Dedicated Outdoor Air High Setpoint Temperature for Design {C}

OS:ZoneHVAC:EquipmentList,
  {76505fb1-d592-4a83-a2e6-f7195d1ed5fa}, !- Handle
  {961123ff-39cd-47cc-86ca-d6ab64cf6719}, !- Name
  {3272d5e6-7878-4e0a-816e-68cb1a35e62a}, !- Thermal Zone
  ,                                       !- Load Distribution Scheme
  {dd8bb15f-48cb-474e-b572-cb4283ea7f53}, !- Zone Equipment 1
  1,                                      !- Zone Equipment Cooling Sequence 1
  1;                                      !- Zone Equipment Heating or No-Load Sequence 1

OS:Facility,
  {206d358d-3e16-4df2-a784-304b4217d492}; !- Handle

OS:Building,
  {7785c5c3-7e41-47fb-9921-4b70754393a5}, !- Handle
  Project Name,                           !- Name
  ,                                       !- Building Sector Type
  ,                                       !- North Axis {deg}
  ,                                       !- Nominal Floor to Floor Height {m}
  {312e2802-d8ed-4670-b928-c34446cf77d6}, !- Space Type Name
  ,                                       !- Default Construction Set Name
  ,                                       !- Default Schedule Set Name
  ,                                       !- Standards Number of Stories
  ,                                       !- Standards Number of Above Ground Stories
  ,                                       !- Standards Template
  Office;                                 !- Standards Building Type

OS:Space,
  {b226f05f-e89f-4216-8b69-1e771b75718c}, !- Handle
  aim0092,                                !- Name
  ,                                       !- Space Type Name
  ,                                       !- Default Construction Set Name
  {a7070c66-af58-4903-b118-3e00ce2cea45}, !- Default Schedule Set Name
  ,                                       !- Direction of Relative North {deg}
  ,                                       !- X Origin {m}
  ,                                       !- Y Origin {m}
  ,                                       !- Z Origin {m}
  ,                                       !- Building Story Name
  {3272d5e6-7878-4e0a-816e-68cb1a35e62a}, !- Thermal Zone Name
  ,                                       !- Part of Total Floor Area
  {19eb0942-7bd8-4a62-838e-a4ef5d10e22c}; !- Design Specification Outdoor Air Object Name

OS:AdditionalProperties,
  {3df154f2-796d-4bd1-8771-ea294c8339a2}, !- Handle
  {b226f05f-e89f-4216-8b69-1e771b75718c}, !- Object Name
  CADObjectId,                            !- Feature Name 1
  String,                                 !- Feature Data Type 1
  204851;                                 !- Feature Value 1

OS:Surface,
  {d186e552-6b48-4d82-a061-2ff28e885c2b}, !- Handle
  aim0146,                                !- Name
  Wall,                                   !- Surface Type
  {66f3f42e-4034-4834-8dba-1fa762947151}, !- Construction Name
  {b226f05f-e89f-4216-8b69-1e771b75718c}, !- Space Name
  Outdoors,                               !- Outside Boundary Condition
  ,                                       !- Outside Boundary Condition Object
  SunExposed,                             !- Sun Exposure
  WindExposed,                            !- Wind Exposure
  ,                                       !- View Factor to Ground
  ,                                       !- Number of Vertices
  -3.578526, 12.0593, 0,                  !- X,Y,Z Vertex 1 {m}
  -3.578526, 12.0593, 4.3,                !- X,Y,Z Vertex 2 {m}
  17.92147, 12.0593, 4.3,                 !- X,Y,Z Vertex 3 {m}
  17.92147, 12.0593, 0;                   !- X,Y,Z Vertex 4 {m}

OS:AdditionalProperties,
  {8b962712-a2ab-4832-a6f3-be0d7b35e0a5}, !- Handle
  {d186e552-6b48-4d82-a061-2ff28e885c2b}, !- Object Name
  CADObjectId,                            !- Feature Name 1
  String,                                 !- Feature Data Type 1
  1;                                      !- Feature Value 1

OS:Surface,
  {fd9aab11-06ca-4563-ae73-31354e52c04f}, !- Handle
  aim0183,                                !- Name
  Wall,                                   !- Surface Type
  {66f3f42e-4034-4834-8dba-1fa762947151}, !- Construction Name
  {b226f05f-e89f-4216-8b69-1e771b75718c}, !- Space Name
  Outdoors,                               !- Outside Boundary Condition
  ,                                       !- Outside Boundary Condition Object
  SunExposed,                             !- Sun Exposure
  WindExposed,                            !- Wind Exposure
  ,                                       !- View Factor to Ground
  ,                                       !- Number of Vertices
  17.92147, 0.9593022, 0,                 !- X,Y,Z Vertex 1 {m}
  17.92147, 12.0593, 0,                   !- X,Y,Z Vertex 2 {m}
  17.92147, 12.0593, 4.3,                 !- X,Y,Z Vertex 3 {m}
  17.92147, 0.9593022, 4.3;               !- X,Y,Z Vertex 4 {m}

OS:AdditionalProperties,
  {2e00496b-00c3-4f02-bffe-973af7e3e61f}, !- Handle
  {fd9aab11-06ca-4563-ae73-31354e52c04f}, !- Object Name
  CADObjectId,                            !- Feature Name 1
  String,                                 !- Feature Data Type 1
  2;                                      !- Feature Value 1

OS:Surface,
  {5d48fd9e-4445-46b5-b6e4-3c31332949a1}, !- Handle
  aim0220,                                !- Name
  Wall,                                   !- Surface Type
  {66f3f42e-4034-4834-8dba-1fa762947151}, !- Construction Name
  {b226f05f-e89f-4216-8b69-1e771b75718c}, !- Space Name
  Outdoors,                               !- Outside Boundary Condition
  ,                                       !- Outside Boundary Condition Object
  SunExposed,                             !- Sun Exposure
  WindExposed,                            !- Wind Exposure
  ,                                       !- View Factor to Ground
  ,                                       !- Number of Vertices
  6.121474, 0.9593022, 0,                 !- X,Y,Z Vertex 1 {m}
  17.92147, 0.9593022, 0,                 !- X,Y,Z Vertex 2 {m}
  17.92147, 0.9593022, 4.3,               !- X,Y,Z Vertex 3 {m}
  6.121474, 0.9593022, 4.3;               !- X,Y,Z Vertex 4 {m}

OS:AdditionalProperties,
  {71bfc73d-7605-47c6-a630-7a77c5adbac7}, !- Handle
  {5d48fd9e-4445-46b5-b6e4-3c31332949a1}, !- Object Name
  CADObjectId,                            !- Feature Name 1
  String,                                 !- Feature Data Type 1
  3;                                      !- Feature Value 1

OS:Surface,
  {ee230e89-cc93-48f0-8b7a-49e27ac24528}, !- Handle
  aim0257,                                !- Name
  Wall,                                   !- Surface Type
  {66f3f42e-4034-4834-8dba-1fa762947151}, !- Construction Name
  {b226f05f-e89f-4216-8b69-1e771b75718c}, !- Space Name
  Outdoors,                               !- Outside Boundary Condition
  ,                                       !- Outside Boundary Condition Object
  SunExposed,                             !- Sun Exposure
  WindExposed,                            !- Wind Exposure
  ,                                       !- View Factor to Ground
  ,                                       !- Number of Vertices
  6.121474, -3.740698, 0,                 !- X,Y,Z Vertex 1 {m}
  6.121474, 0.9593022, 0,                 !- X,Y,Z Vertex 2 {m}
  6.121474, 0.9593022, 4.3,               !- X,Y,Z Vertex 3 {m}
  6.121474, -3.740698, 4.3;               !- X,Y,Z Vertex 4 {m}

OS:AdditionalProperties,
  {5f0ba70e-d42e-4e30-85cb-56632dfe3001}, !- Handle
  {ee230e89-cc93-48f0-8b7a-49e27ac24528}, !- Object Name
  CADObjectId,                            !- Feature Name 1
  String,                                 !- Feature Data Type 1
  4;                                      !- Feature Value 1

OS:Surface,
  {4d596286-4465-4f79-a6e0-181a8d927b8e}, !- Handle
  aim0294,                                !- Name
  Wall,                                   !- Surface Type
  {66f3f42e-4034-4834-8dba-1fa762947151}, !- Construction Name
  {b226f05f-e89f-4216-8b69-1e771b75718c}, !- Space Name
  Outdoors,                               !- Outside Boundary Condition
  ,                                       !- Outside Boundary Condition Object
  SunExposed,                             !- Sun Exposure
  WindExposed,                            !- Wind Exposure
  ,                                       !- View Factor to Ground
  ,                                       !- Number of Vertices
  -3.578526, -3.740698, 0,                !- X,Y,Z Vertex 1 {m}
  6.121474, -3.740698, 0,                 !- X,Y,Z Vertex 2 {m}
  6.121474, -3.740698, 4.3,               !- X,Y,Z Vertex 3 {m}
  -3.578526, -3.740698, 4.3;              !- X,Y,Z Vertex 4 {m}

OS:AdditionalProperties,
  {2424ec75-1039-4e41-bde7-3a314958b02d}, !- Handle
  {4d596286-4465-4f79-a6e0-181a8d927b8e}, !- Object Name
  CADObjectId,                            !- Feature Name 1
  String,                                 !- Feature Data Type 1
  5;                                      !- Feature Value 1

OS:Surface,
  {0e6203a1-ac87-4dcc-8110-b0e1a79eabb0}, !- Handle
  aim0331,                                !- Name
  Wall,                                   !- Surface Type
  {66f3f42e-4034-4834-8dba-1fa762947151}, !- Construction Name
  {b226f05f-e89f-4216-8b69-1e771b75718c}, !- Space Name
  Outdoors,                               !- Outside Boundary Condition
  ,                                       !- Outside Boundary Condition Object
  SunExposed,                             !- Sun Exposure
  WindExposed,                            !- Wind Exposure
  ,                                       !- View Factor to Ground
  ,                                       !- Number of Vertices
  -3.578526, -3.740698, 0,                !- X,Y,Z Vertex 1 {m}
  -3.578526, -3.740698, 4.3,              !- X,Y,Z Vertex 2 {m}
  -3.578526, 12.0593, 4.3,                !- X,Y,Z Vertex 3 {m}
  -3.578526, 12.0593, 0;                  !- X,Y,Z Vertex 4 {m}

OS:AdditionalProperties,
  {240983bf-6cce-4da8-935a-df56b0b25add}, !- Handle
  {0e6203a1-ac87-4dcc-8110-b0e1a79eabb0}, !- Object Name
  CADObjectId,                            !- Feature Name 1
  String,                                 !- Feature Data Type 1
  6;                                      !- Feature Value 1

OS:Surface,
  {6ceb1195-5c08-4a77-a42b-681c9bcad744}, !- Handle
  aim0372,                                !- Name
  Floor,                                  !- Surface Type
  {82b4913a-efcf-4180-bb98-b4277fb72a4d}, !- Construction Name
  {b226f05f-e89f-4216-8b69-1e771b75718c}, !- Space Name
  Ground,                                 !- Outside Boundary Condition
  ,                                       !- Outside Boundary Condition Object
  NoSun,                                  !- Sun Exposure
  NoWind,                                 !- Wind Exposure
  ,                                       !- View Factor to Ground
  ,                                       !- Number of Vertices
  -3.578526, -3.740698, 0,                !- X,Y,Z Vertex 1 {m}
  -3.578526, 12.0593, 0,                  !- X,Y,Z Vertex 2 {m}
  17.92147, 12.0593, 0,                   !- X,Y,Z Vertex 3 {m}
  17.92147, 0.9593022, 0,                 !- X,Y,Z Vertex 4 {m}
  6.121474, 0.9593022, 0,                 !- X,Y,Z Vertex 5 {m}
  6.121474, -3.740698, 0;                 !- X,Y,Z Vertex 6 {m}

OS:AdditionalProperties,
  {bd3c748e-39de-4f60-b227-3379c43c825b}, !- Handle
  {6ceb1195-5c08-4a77-a42b-681c9bcad744}, !- Object Name
  CADObjectId,                            !- Feature Name 1
  String,                                 !- Feature Data Type 1
  7;                                      !- Feature Value 1

OS:Surface,
  {57ef0f20-9d08-49fa-ab59-f9cba5222efa}, !- Handle
  aim0415,                                !- Name
  RoofCeiling,                            !- Surface Type
  {ec617f85-467a-4a06-8283-ff63b37ab9a5}, !- Construction Name
  {b226f05f-e89f-4216-8b69-1e771b75718c}, !- Space Name
  Outdoors,                               !- Outside Boundary Condition
  ,                                       !- Outside Boundary Condition Object
  SunExposed,                             !- Sun Exposure
  WindExposed,                            !- Wind Exposure
  ,                                       !- View Factor to Ground
  ,                                       !- Number of Vertices
  -3.578526, -3.740698, 4.3,              !- X,Y,Z Vertex 1 {m}
  6.121474, -3.740698, 4.3,               !- X,Y,Z Vertex 2 {m}
  6.121474, 0.9593022, 4.3,               !- X,Y,Z Vertex 3 {m}
  17.92147, 0.9593022, 4.3,               !- X,Y,Z Vertex 4 {m}
  17.92147, 12.0593, 4.3,                 !- X,Y,Z Vertex 5 {m}
  -3.578526, 12.0593, 4.3;                !- X,Y,Z Vertex 6 {m}

OS:AdditionalProperties,
  {87282964-d386-4b02-8a72-cd6ef549f6c4}, !- Handle
  {57ef0f20-9d08-49fa-ab59-f9cba5222efa}, !- Object Name
  CADObjectId,                            !- Feature Name 1
  String,                                 !- Feature Data Type 1
  8;                                      !- Feature Value 1

OS:SpaceType,
  {312e2802-d8ed-4670-b928-c34446cf77d6}, !- Handle
  Space Type 1,                           !- Name
  ,                                       !- Default Construction Set Name
  ,                                       !- Default Schedule Set Name
  ,                                       !- Group Rendering Name
  ,                                       !- Design Specification Outdoor Air Object Name
  ,                                       !- Standards Template
  Office,                                 !- Standards Building Type
  WholeBuilding - Md Office;              !- Standards Space Type

OS:WeatherFile,
  {3bedbea1-f41a-4594-bde3-d0129e3e8732}, !- Handle
  Denver Intl Ap,                         !- City
  CO,                                     !- State Province Region
  USA,                                    !- Country
  TMY3,                                   !- Data Source
  725650,                                 !- WMO Number
  39.83,                                  !- Latitude {deg}
  -104.65,                                !- Longitude {deg}
  -7,                                     !- Time Zone {hr}
  1650,                                   !- Elevation {m}
  file:////Users/npflaum/Documents/GitHub/gbxml-to-openstudio/weather/USA_CO_Denver.Intl.AP.725650_TMY3.epw, !- Url
  E23378AA;                               !- Checksum

OS:Site:WaterMainsTemperature,
  {04e23319-e9c9-4d9a-839d-9dc03eaac733}, !- Handle
  Correlation,                            !- Calculation Method
  ,                                       !- Temperature Schedule Name
  10.8,                                   !- Annual Average Outdoor Air Temperature {C}
  23.2;                                   !- Maximum Difference In Monthly Average Outdoor Air Temperatures {deltaC}

OS:ClimateZones,
  {b5e57466-5b61-4599-8b90-5dd6b0d6160f}, !- Handle
  ,                                       !- Active Institution
  ,                                       !- Active Year
  ASHRAE,                                 !- Climate Zone Institution Name 1
  ANSI/ASHRAE Standard 169,               !- Climate Zone Document Name 1
  2006,                                   !- Climate Zone Document Year 1
  5B;                                     !- Climate Zone Value 1

OS:ScheduleTypeLimits,
  {5ebce078-bdf1-4f3f-a1c2-905cb6f02d00}, !- Handle
  Lights Schedule Type Limits,            !- Name
  0,                                      !- Lower Limit Value
  1,                                      !- Upper Limit Value
  Continuous,                             !- Numeric Type
  Dimensionless;                          !- Unit Type

OS:ScheduleTypeLimits,
  {4a71ed51-eefe-4c89-9a48-90a2c8e07cd1}, !- Handle
  Occupancy Schedule Type Limits,         !- Name
  0,                                      !- Lower Limit Value
  1,                                      !- Upper Limit Value
  Continuous,                             !- Numeric Type
  Dimensionless;                          !- Unit Type

OS:ScheduleTypeLimits,
  {d0e04dc6-453e-40ed-a8eb-0bf00f3b3b1f}, !- Handle
  People Activity Type Limits,            !- Name
  0,                                      !- Lower Limit Value
  ,                                       !- Upper Limit Value
  Continuous,                             !- Numeric Type
  ActivityLevel;                          !- Unit Type

OS:ScheduleTypeLimits,
  {b47c53b2-1fc9-4ca2-857a-18ca12ccb2a3}, !- Handle
  Equipment Schedule Type Limits,         !- Name
  0,                                      !- Lower Limit Value
  1,                                      !- Upper Limit Value
  Continuous,                             !- Numeric Type
  Dimensionless;                          !- Unit Type

OS:ScheduleTypeLimits,
  {5eaf77de-1c59-4d81-9374-b4b54349c6ed}, !- Handle
  Water Use Schedule Type Limits,         !- Name
  0,                                      !- Lower Limit Value
  1,                                      !- Upper Limit Value
  Continuous,                             !- Numeric Type
  Dimensionless;                          !- Unit Type

OS:ScheduleTypeLimits,
  {6ec6f349-6631-464d-b89e-8f8dee896452}, !- Handle
  Elevators Schedule Type Limits,         !- Name
  0,                                      !- Lower Limit Value
  1,                                      !- Upper Limit Value
  Continuous,                             !- Numeric Type
  Dimensionless;                          !- Unit Type

OS:ScheduleTypeLimits,
  {a756cb8e-4cca-41db-a608-d78e22ce7163}, !- Handle
  Process Loads Schedule Type Limits,     !- Name
  0,                                      !- Lower Limit Value
  1,                                      !- Upper Limit Value
  Continuous,                             !- Numeric Type
  Dimensionless;                          !- Unit Type

OS:ScheduleTypeLimits,
  {ba5f7874-acc1-4ef9-af38-ddddf064f004}, !- Handle
  Thermostat Heating Setpoint Schedule Type Limits, !- Name
  0,                                      !- Lower Limit Value
  100,                                    !- Upper Limit Value
  Continuous,                             !- Numeric Type
  Temperature;                            !- Unit Type

OS:ScheduleTypeLimits,
  {3abe8f92-6cc7-431f-a0cd-f8c05ec63854}, !- Handle
  Thermostat Cooling Setpoint Schedule Type Limits, !- Name
  0,                                      !- Lower Limit Value
  100,                                    !- Upper Limit Value
  Continuous,                             !- Numeric Type
  Temperature;                            !- Unit Type

OS:ScheduleTypeLimits,
  {ed9ccc61-fd66-4c3b-bc58-ee0a01c22b02}, !- Handle
  HVAC Operation Schedule Type Limits,    !- Name