
OS:Version,
  {24150532-e6b7-4fc7-a5d4-93d2382e2388}, !- Handle
  2.6.0;                                  !- Version Identifier

OS:Material,
  {3e64aeee-c873-4d37-a867-58f5f651878e}, !- Handle
  8 in lightweight concrete,              !- Name
  MediumRough,                            !- Roughness
  0.2032,                                 !- Thickness {m}
  0.53,                                   !- Conductivity {W/m-K}
  1280,                                   !- Density {kg/m3}
  840;                                    !- Specific Heat {J/kg-K}

OS:Material,
  {727c2e19-e3ec-4a90-b5f0-a7ccf07b2ad0}, !- Handle
  Metal surface,                          !- Name
  MediumRough,                            !- Roughness
  0.0008,                                 !- Thickness {m}
  45.28,                                  !- Conductivity {W/m-K}
  7824,                                   !- Density {kg/m3}
  500;                                    !- Specific Heat {J/kg-K}

OS:Material,
  {f5b729ad-7c97-48d0-8dca-e51959b03138}, !- Handle
  1 1/2 in wood,                          !- Name
  MediumRough,                            !- Roughness
  0.0376,                                 !- Thickness {m}
  0.15,                                   !- Conductivity {W/m-K}
  608,                                    !- Density {kg/m3}
  1630;                                   !- Specific Heat {J/kg-K}

OS:Material,
  {3ce2ef25-f9c9-445e-9ceb-883a1a01a926}, !- Handle
  Carpet,                                 !- Name
  MediumRough,                            !- Roughness
  0.0127,                                 !- Thickness {m}
  0.06,                                   !- Conductivity {W/m-K}
  288,                                    !- Density {kg/m3}
  1380;                                   !- Specific Heat {J/kg-K}

OS:Material,
  {0bb97604-e2d2-4c06-b8ef-e30a8e5c0236}, !- Handle
  Concrete cast dense reinforced,         !- Name
  MediumRough,                            !- Roughness
  0.2,                                    !- Thickness {m}
  1.9,                                    !- Conductivity {W/m-K}
  2300,                                   !- Density {kg/m3}
  840;                                    !- Specific Heat {J/kg-K}

OS:Material,
  {4d75db1a-f92b-4bd7-9574-97fb47075609}, !- Handle
  4 in lightweight concrete block,        !- Name
  MediumRough,                            !- Roughness
  0.1016,                                 !- Thickness {m}
  0.89,                                   !- Conductivity {W/m-K}
  1920,                                   !- Density {kg/m3}
  790;                                    !- Specific Heat {J/kg-K}

OS:Material:NoMass,
  {c193b76b-cab1-4d1f-ae18-310502466510}, !- Handle
  Minwool batt R11 w/ 2x4 frame,          !- Name
  Smooth,                                 !- Roughness
  1.46524;                                !- Thermal Resistance {m2-K/W}

OS:Material,
  {5798f425-488f-4905-8acf-ad71eecb8d4b}, !- Handle
  5/8 in gyp board,                       !- Name
  MediumRough,                            !- Roughness
  0.0159,                                 !- Thickness {m}
  0.16,                                   !- Conductivity {W/m-K}
  800,                                    !- Density {kg/m3}
  1090;                                   !- Specific Heat {J/kg-K}

OS:Construction,
  {7918194e-90d2-47a8-ab3e-8d10d9ac7583}, !- Handle
  8 in lightweight concrete block,        !- Name
  ,                                       !- Surface Rendering Name
  {3e64aeee-c873-4d37-a867-58f5f651878e}, !- Layer 1
  {3e64aeee-c873-4d37-a867-58f5f651878e}; !- Layer 2

OS:Construction,
  {86cbd353-35ea-4838-94d7-427912d1c71e}, !- Handle
  Metal,                                  !- Name
  ,                                       !- Surface Rendering Name
  {727c2e19-e3ec-4a90-b5f0-a7ccf07b2ad0}, !- Layer 1
  {f5b729ad-7c97-48d0-8dca-e51959b03138}, !- Layer 2
  {727c2e19-e3ec-4a90-b5f0-a7ccf07b2ad0}; !- Layer 3

OS:Construction,
  {808de026-e640-449d-9d5e-8fc018b0d4ba}, !- Handle
  Un-insulated solid,                     !- Name
  ,                                       !- Surface Rendering Name
  {3ce2ef25-f9c9-445e-9ceb-883a1a01a926}, !- Layer 1
  {0bb97604-e2d2-4c06-b8ef-e30a8e5c0236}; !- Layer 2

OS:Construction,
  {4141dfd3-4b1a-445a-a027-f99cb5784e5f}, !- Handle
  4 in lightweight concrete,              !- Name
  ,                                       !- Surface Rendering Name
  {4d75db1a-f92b-4bd7-9574-97fb47075609}; !- Layer 1

OS:Construction,
  {5076e889-bd05-4fd8-a4b3-660cdd71f14c}, !- Handle
  Frame partition with 3/4 in gypsum board, !- Name
  ,                                       !- Surface Rendering Name
  {c193b76b-cab1-4d1f-ae18-310502466510}, !- Layer 1
  {5798f425-488f-4905-8acf-ad71eecb8d4b}; !- Layer 2

OS:Construction,
  {698980a6-600d-4cad-87b3-70aba3e5110f}, !- Handle
  Large double-glazed windows (reflective coating) - industry, !- Name
  ,                                       !- Surface Rendering Name
  {ada52df7-b3a6-4866-9f32-5e07651091c2}; !- Layer 1

OS:WindowMaterial:SimpleGlazingSystem,
  {ada52df7-b3a6-4866-9f32-5e07651091c2}, !- Handle
  {1fbfa797-2dac-4ad5-ae16-53e786d5d6aa}, !- Name
  2.9214,                                 !- U-Factor {W/m2-K}
  0.13,                                   !- Solar Heat Gain Coefficient
  0.07;                                   !- Visible Transmittance

OS:Schedule:Year,
  {a8e06487-4fd1-4974-80c6-65e8e4d35596}, !- Handle
  Office Lighting - 6 AM to 11 PM,        !- Name
  {1dd9acaa-d0db-46f6-9b86-a669f7b3290b}, !- Schedule Type Limits Name
  12,                                     !- Month 1
  31,                                     !- Day 1
  {619b0cea-e331-45f0-975f-8f78760a4292}; !- Week Schedule Until Date 1

OS:ScheduleTypeLimits,
  {1dd9acaa-d0db-46f6-9b86-a669f7b3290b}, !- Handle
  Fraction,                               !- Name
  ,                                       !- Lower Limit Value
  ,                                       !- Upper Limit Value
  ,                                       !- Numeric Type
  Dimensionless;                          !- Unit Type

OS:YearDescription,
  {d64a65e1-ac2b-47e8-ac6a-756864779d54}, !- Handle
  2018,                                   !- Calendar Year
  ,                                       !- Day of Week for Start Day
  ;                                       !- Is Leap Year

OS:Schedule:Week,
  {619b0cea-e331-45f0-975f-8f78760a4292}, !- Handle
  Office Lighting - 6 AM to 11 PM,        !- Name
  ,                                       !- Schedule Rendering Name
  {921fd843-ee80-45bd-a650-9b7f10a2551c}, !- Sunday Schedule:Day Name
  {921fd843-ee80-45bd-a650-9b7f10a2551c}, !- Monday Schedule:Day Name
  {921fd843-ee80-45bd-a650-9b7f10a2551c}, !- Tuesday Schedule:Day Name
  {921fd843-ee80-45bd-a650-9b7f10a2551c}, !- Wednesday Schedule:Day Name
  {921fd843-ee80-45bd-a650-9b7f10a2551c}, !- Thursday Schedule:Day Name
  {921fd843-ee80-45bd-a650-9b7f10a2551c}, !- Friday Schedule:Day Name
  {921fd843-ee80-45bd-a650-9b7f10a2551c}, !- Saturday Schedule:Day Name
  {921fd843-ee80-45bd-a650-9b7f10a2551c}, !- Holiday Schedule:Day Name
  {921fd843-ee80-45bd-a650-9b7f10a2551c}, !- SummerDesignDay Schedule:Day Name
  {921fd843-ee80-45bd-a650-9b7f10a2551c}, !- WinterDesignDay Schedule:Day Name
  {921fd843-ee80-45bd-a650-9b7f10a2551c}, !- CustomDay1 Schedule:Day Name
  {921fd843-ee80-45bd-a650-9b7f10a2551c}; !- CustomDay2 Schedule:Day Name

OS:Schedule:Day,
  {921fd843-ee80-45bd-a650-9b7f10a2551c}, !- Handle
  Office Lighting - 6 AM to 11 PM,        !- Name
  {1dd9acaa-d0db-46f6-9b86-a669f7b3290b}, !- Schedule Type Limits Name
  ,                                       !- Interpolate to Timestep
  1,                                      !- Hour 1
  0,                                      !- Minute 1
  0,                                      !- Value Until Time 1
  2,                                      !- Hour 2
  0,                                      !- Minute 2
  0,                                      !- Value Until Time 2
  3,                                      !- Hour 3
  0,                                      !- Minute 3
  0,                                      !- Value Until Time 3
  4,                                      !- Hour 4
  0,                                      !- Minute 4
  0,                                      !- Value Until Time 4
  5,                                      !- Hour 5
  0,                                      !- Minute 5
  0,                                      !- Value Until Time 5
  6,                                      !- Hour 6
  0,                                      !- Minute 6
  0,                                      !- Value Until Time 6
  7,                                      !- Hour 7
  0,                                      !- Minute 7
  0.1,                                    !- Value Until Time 7
  8,                                      !- Hour 8
  0,                                      !- Minute 8
  0.3,                                    !- Value Until Time 8
  9,                                      !- Hour 9
  0,                                      !- Minute 9
  0.9,                                    !- Value Until Time 9
  10,                                     !- Hour 10
  0,                                      !- Minute 10
  0.9,                                    !- Value Until Time 10
  11,                                     !- Hour 11
  0,                                      !- Minute 11
  0.9,                                    !- Value Until Time 11
  12,                                     !- Hour 12
  0,                                      !- Minute 12
  0.9,                                    !- Value Until Time 12
  13,                                     !- Hour 13
  0,                                      !- Minute 13
  0.8,                                    !- Value Until Time 13
  14,                                     !- Hour 14
  0,                                      !- Minute 14
  0.9,                                    !- Value Until Time 14
  15,                                     !- Hour 15
  0,                                      !- Minute 15
  0.9,                                    !- Value Until Time 15
  16,                                     !- Hour 16
  0,                                      !- Minute 16
  0.9,                                    !- Value Until Time 16
  17,                                     !- Hour 17
  0,                                      !- Minute 17
  0.9,                                    !- Value Until Time 17
  18,                                     !- Hour 18
  0,                                      !- Minute 18
  0.5,                                    !- Value Until Time 18
  19,                                     !- Hour 19
  0,                                      !- Minute 19
  0.3,                                    !- Value Until Time 19
  20,                                     !- Hour 20
  0,                                      !- Minute 20
  0.3,                                    !- Value Until Time 20
  21,                                     !- Hour 21
  0,                                      !- Minute 21
  0.2,                                    !- Value Until Time 21
  22,                                     !- Hour 22
  0,                                      !- Minute 22
  0.2,                                    !- Value Until Time 22
  23,                                     !- Hour 23
  0,                                      !- Minute 23
  0,                                      !- Value Until Time 23
  24,                                     !- Hour 24
  0,                                      !- Minute 24
  0;                                      !- Value Until Time 24

OS:Schedule:Year,
  {dec5defe-f3f7-4fe3-a14f-95b6993fb9cf}, !- Handle
  Common Office Occupancy - 8 AM to 5 PM, !- Name
  {1dd9acaa-d0db-46f6-9b86-a669f7b3290b}, !- Schedule Type Limits Name
  12,                                     !- Month 1
  31,                                     !- Day 1
  {20e89d95-ceeb-44c2-95d1-e969b31f4162}; !- Week Schedule Until Date 1

OS:Schedule:Week,
  {20e89d95-ceeb-44c2-95d1-e969b31f4162}, !- Handle
  Common Office Occupancy - 8 AM to 5 PM, !- Name
  ,                                       !- Schedule Rendering Name
  {34653285-089a-4ea9-b567-eec29ebaa57c}, !- Sunday Schedule:Day Name
  {34653285-089a-4ea9-b567-eec29ebaa57c}, !- Monday Schedule:Day Name
  {34653285-089a-4ea9-b567-eec29ebaa57c}, !- Tuesday Schedule:Day Name
  {34653285-089a-4ea9-b567-eec29ebaa57c}, !- Wednesday Schedule:Day Name
  {34653285-089a-4ea9-b567-eec29ebaa57c}, !- Thursday Schedule:Day Name
  {34653285-089a-4ea9-b567-eec29ebaa57c}, !- Friday Schedule:Day Name
  {34653285-089a-4ea9-b567-eec29ebaa57c}, !- Saturday Schedule:Day Name
  {34653285-089a-4ea9-b567-eec29ebaa57c}, !- Holiday Schedule:Day Name
  {34653285-089a-4ea9-b567-eec29ebaa57c}, !- SummerDesignDay Schedule:Day Name
  {34653285-089a-4ea9-b567-eec29ebaa57c}, !- WinterDesignDay Schedule:Day Name
  {34653285-089a-4ea9-b567-eec29ebaa57c}, !- CustomDay1 Schedule:Day Name
  {34653285-089a-4ea9-b567-eec29ebaa57c}; !- CustomDay2 Schedule:Day Name

OS:Schedule:Day,
  {34653285-089a-4ea9-b567-eec29ebaa57c}, !- Handle
  Common Office Occupancy - 8 AM to 5 PM, !- Name
  {1dd9acaa-d0db-46f6-9b86-a669f7b3290b}, !- Schedule Type Limits Name
  ,                                       !- Interpolate to Timestep
  1,                                      !- Hour 1
  0,                                      !- Minute 1
  0,                                      !- Value Until Time 1
  2,                                      !- Hour 2
  0,                                      !- Minute 2
  0,                                      !- Value Until Time 2
  3,                                      !- Hour 3
  0,                                      !- Minute 3
  0,                                      !- Value Until Time 3
  4,                                      !- Hour 4
  0,                                      !- Minute 4
  0,                                      !- Value Until Time 4
  5,                                      !- Hour 5
  0,                                      !- Minute 5
  0,                                      !- Value Until Time 5
  6,                                      !- Hour 6
  0,                                      !- Minute 6
  0,                                      !- Value Until Time 6
  7,                                      !- Hour 7
  0,                                      !- Minute 7
  0,                                      !- Value Until Time 7
  8,                                      !- Hour 8
  0,                                      !- Minute 8
  0.1,                                    !- Value Until Time 8
  9,                                      !- Hour 9
  0,                                      !- Minute 9
  0.2,                                    !- Value Until Time 9
  10,                                     !- Hour 10
  0,                                      !- Minute 10
  0.95,                                   !- Value Until Time 10
  11,                                     !- Hour 11
  0,                                      !- Minute 11
  0.95,                                   !- Value Until Time 11
  12,                                     !- Hour 12
  0,                                      !- Minute 12
  0.45,                                   !- Value Until Time 12
  13,                                     !- Hour 13
  0,                                      !- Minute 13
  0.45,                                   !- Value Until Time 13
  14,                                     !- Hour 14
  0,                                      !- Minute 14
  0.95,                                   !- Value Until Time 14
  15,                                     !- Hour 15
  0,                                      !- Minute 15
  0.95,                                   !- Value Until Time 15
  16,                                     !- Hour 16
  0,                                      !- Minute 16
  0.95,                                   !- Value Until Time 16
  17,                                     !- Hour 17
  0,                                      !- Minute 17
  0.95,                                   !- Value Until Time 17
  18,                                     !- Hour 18
  0,                                      !- Minute 18
  0.95,                                   !- Value Until Time 18
  19,                                     !- Hour 19
  0,                                      !- Minute 19
  0.3,                                    !- Value Until Time 19
  20,                                     !- Hour 20
  0,                                      !- Minute 20
  0.1,                                    !- Value Until Time 20
  21,                                     !- Hour 21
  0,                                      !- Minute 21
  0.1,                                    !- Value Until Time 21
  22,                                     !- Hour 22
  0,                                      !- Minute 22
  0.1,                                    !- Value Until Time 22
  23,                                     !- Hour 23
  0,                                      !- Minute 23
  0,                                      !- Value Until Time 23
  24,                                     !- Hour 24
  0,                                      !- Minute 24
  0;                                      !- Value Until Time 24

OS:ThermalZone,
  {2dff9033-071b-44e2-829d-03747c586e67}, !- Handle
  VAV-1,                                  !- Name
  ,                                       !- Multiplier
  ,                                       !- Ceiling Height {m}
  ,                                       !- Volume {m3}
  ,                                       !- Floor Area {m2}
  ,                                       !- Zone Inside Convection Algorithm
  ,                                       !- Zone Outside Convection Algorithm
  ,                                       !- Zone Conditioning Equipment List Name
  {e80e52a7-cb9d-44e8-a5fd-8c4175ff294a}, !- Zone Air Inlet Port List
  {625642ed-a1b7-4bd8-907c-9d1d769f6397}, !- Zone Air Exhaust Port List
  {2b75dd96-65bc-467a-a83a-88b91ec6cd94}, !- Zone Air Node Name
  ,                                       !- Zone Return Air Node Name
  ,                                       !- Primary Daylighting Control Name
  ,                                       !- Fraction of Zone Controlled by Primary Daylighting Control
  ,                                       !- Secondary Daylighting Control Name
  ,                                       !- Fraction of Zone Controlled by Secondary Daylighting Control
  ,                                       !- Illuminance Map Name
  ,                                       !- Group Rendering Name
  ,                                       !- Thermostat Name
  No;                                     !- Use Ideal Air Loads

OS:Node,
  {4401be60-9086-4450-8a24-4c7183beda70}, !- Handle
  {04d4bf4b-84c4-43fb-8da8-ac714242633a}, !- Name
  {2b75dd96-65bc-467a-a83a-88b91ec6cd94}, !- Inlet Port
  ;                                       !- Outlet Port

OS:Connection,
  {2b75dd96-65bc-467a-a83a-88b91ec6cd94}, !- Handle
  {bc8a6b5e-b987-45d0-9701-d122b289e6df}, !- Name
  {2dff9033-071b-44e2-829d-03747c586e67}, !- Source Object
  11,                                     !- Outlet Port
  {4401be60-9086-4450-8a24-4c7183beda70}, !- Target Object
  2;                                      !- Inlet Port

OS:PortList,
  {e80e52a7-cb9d-44e8-a5fd-8c4175ff294a}, !- Handle
  {262e58f1-7387-42f7-aa2e-fc34113e7854}, !- Name
  {2dff9033-071b-44e2-829d-03747c586e67}; !- HVAC Component

OS:PortList,
  {625642ed-a1b7-4bd8-907c-9d1d769f6397}, !- Handle
  {900894dd-f6da-459e-941d-cf582b56e2da}, !- Name
  {2dff9033-071b-44e2-829d-03747c586e67}; !- HVAC Component

OS:Sizing:Zone,
  {cb6d7289-4d36-4642-90a0-e7ac005725c6}, !- Handle
  {2dff9033-071b-44e2-829d-03747c586e67}, !- Zone or ZoneList Name
  SupplyAirTemperature,                   !- Zone Cooling Design Supply Air Temperature Input Method
  14,                                     !- Zone Cooling Design Supply Air Temperature {C}
  11.11,                                  !- Zone Cooling Design Supply Air Temperature Difference {deltaC}
  SupplyAirTemperature,                   !- Zone Heating Design Supply Air Temperature Input Method
  40,                                     !- Zone Heating Design Supply Air Temperature {C}
  11.11,                                  !- Zone Heating Design Supply Air Temperature Difference {deltaC}
  0.0085,                                 !- Zone Cooling Design Supply Air Humidity Ratio {kg-H2O/kg-air}
  0.008,                                  !- Zone Heating Design Supply Air Humidity Ratio {kg-H2O/kg-air}
  ,                                       !- Zone Heating Sizing Factor
  ,                                       !- Zone Cooling Sizing Factor
  DesignDay,                              !- Cooling Design Air Flow Method
  ,                                       !- Cooling Design Air Flow Rate {m3/s}
  ,                                       !- Cooling Minimum Air Flow per Zone Floor Area {m3/s-m2}
  ,                                       !- Cooling Minimum Air Flow {m3/s}
  ,                                       !- Cooling Minimum Air Flow Fraction
  DesignDay,                              !- Heating Design Air Flow Method
  ,                                       !- Heating Design Air Flow Rate {m3/s}
  ,                                       !- Heating Maximum Air Flow per Zone Floor Area {m3/s-m2}
  ,                                       !- Heating Maximum Air Flow {m3/s}
  ,                                       !- Heating Maximum Air Flow Fraction
  ,                                       !- Design Zone Air Distribution Effectiveness in Cooling Mode
  ,                                       !- Design Zone Air Distribution Effectiveness in Heating Mode
  No,                                     !- Account for Dedicated Outdoor Air System
  NeutralSupplyAir,                       !- Dedicated Outdoor Air System Control Strategy
  autosize,                               !- Dedicated Outdoor Air Low Setpoint Temperature for Design {C}
  autosize;                               !- Dedicated Outdoor Air High Setpoint Temperature for Design {C}

OS:ZoneHVAC:EquipmentList,
  {5c6d0e74-ddfd-4128-b541-ab0adca5ae66}, !- Handle
  {ef7008bf-e597-43d9-9f73-e2a0393c5b9b}, !- Name
  {2dff9033-071b-44e2-829d-03747c586e67}; !- Thermal Zone

OS:ThermalZone,
  {908fd7c3-5fdc-425e-8199-2ad414343ac7}, !- Handle
  VAV-2,                                  !- Name
  ,                                       !- Multiplier
  ,                                       !- Ceiling Height {m}
  ,                                       !- Volume {m3}
  ,                                       !- Floor Area {m2}
  ,                                       !- Zone Inside Convection Algorithm
  ,                                       !- Zone Outside Convection Algorithm
  ,                                       !- Zone Conditioning Equipment List Name
  {ab0ae435-ccf3-462a-bc4c-332da89bdf18}, !- Zone Air Inlet Port List
  {78825e52-0157-44c7-aa3f-43c402ab196f}, !- Zone Air Exhaust Port List
  {c480cfac-6a51-408a-9172-c601bd1436da}, !- Zone Air Node Name
  ,                                       !- Zone Return Air Node Name
  ,                                       !- Primary Daylighting Control Name
  ,                                       !- Fraction of Zone Controlled by Primary Daylighting Control
  ,                                       !- Secondary Daylighting Control Name
  ,                                       !- Fraction of Zone Controlled by Secondary Daylighting Control
  ,                                       !- Illuminance Map Name
  ,                                       !- Group Rendering Name
  ,                                       !- Thermostat Name
  No;                                     !- Use Ideal Air Loads

OS:Node,
  {a78b8ff1-b9b3-4c7c-803b-d6ef6dcd3991}, !- Handle
  {250d6a4d-804a-489f-a73f-ea390bfca229}, !- Name
  {c480cfac-6a51-408a-9172-c601bd1436da}, !- Inlet Port
  ;                                       !- Outlet Port

OS:Connection,
  {c480cfac-6a51-408a-9172-c601bd1436da}, !- Handle
  {db92f848-eddd-4559-94ab-bb2a50dca31b}, !- Name
  {908fd7c3-5fdc-425e-8199-2ad414343ac7}, !- Source Object
  11,                                     !- Outlet Port
  {a78b8ff1-b9b3-4c7c-803b-d6ef6dcd3991}, !- Target Object
  2;                                      !- Inlet Port

OS:PortList,
  {ab0ae435-ccf3-462a-bc4c-332da89bdf18}, !- Handle
  {5dd01623-75f8-4d35-ad01-ec28d6325e8c}, !- Name
  {908fd7c3-5fdc-425e-8199-2ad414343ac7}; !- HVAC Component

OS:PortList,
  {78825e52-0157-44c7-aa3f-43c402ab196f}, !- Handle
  {c8fe8638-1c96-4940-9760-84b85a614251}, !- Name
  {908fd7c3-5fdc-425e-8199-2ad414343ac7}; !- HVAC Component

OS:Sizing:Zone,
  {0aa45530-2b13-4ffc-bb48-17a588249a46}, !- Handle
  {908fd7c3-5fdc-425e-8199-2ad414343ac7}, !- Zone or ZoneList Name
  SupplyAirTemperature,                   !- Zone Cooling Design Supply Air Temperature Input Method
  14,                                     !- Zone Cooling Design Supply Air Temperature {C}
  11.11,                                  !- Zone Cooling Design Supply Air Temperature Difference {deltaC}
  SupplyAirTemperature,                   !- Zone Heating Design Supply Air Temperature Input Method
  40,                                     !- Zone Heating Design Supply Air Temperature {C}
  11.11,                                  !- Zone Heating Design Supply Air Temperature Difference {deltaC}
  0.0085,                                 !- Zone Cooling Design Supply Air Humidity Ratio {kg-H2O/kg-air}
  0.008,                                  !- Zone Heating Design Supply Air Humidity Ratio {kg-H2O/kg-air}
  ,                                       !- Zone Heating Sizing Factor
  ,                                       !- Zone Cooling Sizing Factor
  DesignDay,                              !- Cooling Design Air Flow Method
  ,                                       !- Cooling Design Air Flow Rate {m3/s}
  ,                                       !- Cooling Minimum Air Flow per Zone Floor Area {m3/s-m2}
  ,                                       !- Cooling Minimum Air Flow {m3/s}
  ,                                       !- Cooling Minimum Air Flow Fraction
  DesignDay,                              !- Heating Design Air Flow Method
  ,                                       !- Heating Design Air Flow Rate {m3/s}
  ,                                       !- Heating Maximum Air Flow per Zone Floor Area {m3/s-m2}
  ,                                       !- Heating Maximum Air Flow {m3/s}
  ,                                       !- Heating Maximum Air Flow Fraction
  ,                                       !- Design Zone Air Distribution Effectiveness in Cooling Mode
  ,                                       !- Design Zone Air Distribution Effectiveness in Heating Mode
  No,                                     !- Account for Dedicated Outdoor Air System
  NeutralSupplyAir,                       !- Dedicated Outdoor Air System Control Strategy
  autosize,                               !- Dedicated Outdoor Air Low Setpoint Temperature for Design {C}
  autosize;                               !- Dedicated Outdoor Air High Setpoint Temperature for Design {C}

OS:ZoneHVAC:EquipmentList,
  {f0d459c4-b764-4ed6-b054-dc53c1e1ee00}, !- Handle
  {ca3ccd54-48e3-4ab2-8cb1-d09443bf25b0}, !- Name
  {908fd7c3-5fdc-425e-8199-2ad414343ac7}; !- Thermal Zone

OS:Facility,
  {64a431a3-6dea-4bc8-826d-91c75466c9d1}; !- Handle

OS:Building,
  {d71021d7-fce6-4014-b154-38563d02f651}, !- Handle
  Project Name,                           !- Name
  ,                                       !- Building Sector Type
  ,                                       !- North Axis {deg}
  ,                                       !- Nominal Floor to Floor Height {m}
  {c36d5c59-da27-44a4-8111-bccb04b6d2ca}, !- Space Type Name
  ,                                       !- Default Construction Set Name
  ,                                       !- Default Schedule Set Name
  ,                                       !- Standards Number of Stories
  ,                                       !- Standards Number of Above Ground Stories
  Office;                                 !- Standards Building Type

OS:Space,
  {151e88f5-425f-4aa3-84a1-467b7105bad7}, !- Handle
  Villa 102,                              !- Name
  ,                                       !- Space Type Name
  ,                                       !- Default Construction Set Name
  ,                                       !- Default Schedule Set Name
  ,                                       !- Direction of Relative North {deg}
  ,                                       !- X Origin {m}
  ,                                       !- Y Origin {m}
  ,                                       !- Z Origin {m}
  ,                                       !- Building Story Name
  {2dff9033-071b-44e2-829d-03747c586e67}; !- Thermal Zone Name

OS:Space,
  {32737443-2ba4-45f2-8e93-444b3d02dd66}, !- Handle
  Villa 101,                              !- Name
  ,                                       !- Space Type Name
  ,                                       !- Default Construction Set Name
  ,                                       !- Default Schedule Set Name
  ,                                       !- Direction of Relative North {deg}
  ,                                       !- X Origin {m}